
---------- Begin Simulation Statistics ----------
sim_seconds                                  0.000070                       # Number of seconds simulated
sim_ticks                                    69691500                       # Number of ticks simulated
final_tick                                   69691500                       # Number of ticks from beginning of simulation (restored from checkpoints and never reset)
sim_freq                                 1000000000000                       # Frequency of simulated ticks
host_inst_rate                                  78420                       # Simulator instruction rate (inst/s)
host_op_rate                                    81114                       # Simulator op (including micro ops) rate (op/s)
host_tick_rate                                9322590                       # Simulator tick rate (ticks/s)
host_mem_usage                                 729620                       # Number of bytes of host memory used
host_seconds                                     7.48                       # Real time elapsed on the host
sim_insts                                      586198                       # Number of instructions simulated
sim_ops                                        606371                       # Number of ops (including micro ops) simulated
system.voltage_domain.voltage                       1                       # Voltage in Volts
system.clk_domain.clock                          1000                       # Clock period in ticks
system.mem_ctrls.bytes_read::cpu00.inst         39488                       # Number of bytes read from this memory
system.mem_ctrls.bytes_read::cpu00.data         37248                       # Number of bytes read from this memory
system.mem_ctrls.bytes_read::cpu01.inst          3072                       # Number of bytes read from this memory
system.mem_ctrls.bytes_read::cpu01.data          1152                       # Number of bytes read from this memory
system.mem_ctrls.bytes_read::cpu02.inst          3136                       # Number of bytes read from this memory
system.mem_ctrls.bytes_read::cpu02.data          1088                       # Number of bytes read from this memory
system.mem_ctrls.bytes_read::cpu03.inst          3136                       # Number of bytes read from this memory
system.mem_ctrls.bytes_read::cpu03.data          1088                       # Number of bytes read from this memory
system.mem_ctrls.bytes_read::cpu04.inst          3136                       # Number of bytes read from this memory
system.mem_ctrls.bytes_read::cpu04.data          1152                       # Number of bytes read from this memory
system.mem_ctrls.bytes_read::cpu05.inst          3200                       # Number of bytes read from this memory
system.mem_ctrls.bytes_read::cpu05.data          1152                       # Number of bytes read from this memory
system.mem_ctrls.bytes_read::cpu06.inst          3136                       # Number of bytes read from this memory
system.mem_ctrls.bytes_read::cpu06.data          1152                       # Number of bytes read from this memory
system.mem_ctrls.bytes_read::cpu07.inst          3136                       # Number of bytes read from this memory
system.mem_ctrls.bytes_read::cpu07.data          1152                       # Number of bytes read from this memory
system.mem_ctrls.bytes_read::cpu08.inst          3200                       # Number of bytes read from this memory
system.mem_ctrls.bytes_read::cpu08.data          1216                       # Number of bytes read from this memory
system.mem_ctrls.bytes_read::cpu09.inst          3328                       # Number of bytes read from this memory
system.mem_ctrls.bytes_read::cpu09.data          1152                       # Number of bytes read from this memory
system.mem_ctrls.bytes_read::cpu10.inst          3456                       # Number of bytes read from this memory
system.mem_ctrls.bytes_read::cpu10.data          1152                       # Number of bytes read from this memory
system.mem_ctrls.bytes_read::cpu11.inst          3456                       # Number of bytes read from this memory
system.mem_ctrls.bytes_read::cpu11.data          1152                       # Number of bytes read from this memory
system.mem_ctrls.bytes_read::cpu12.inst          3456                       # Number of bytes read from this memory
system.mem_ctrls.bytes_read::cpu12.data          1152                       # Number of bytes read from this memory
system.mem_ctrls.bytes_read::cpu13.inst          3520                       # Number of bytes read from this memory
system.mem_ctrls.bytes_read::cpu13.data          1152                       # Number of bytes read from this memory
system.mem_ctrls.bytes_read::cpu14.inst          3520                       # Number of bytes read from this memory
system.mem_ctrls.bytes_read::cpu14.data          1152                       # Number of bytes read from this memory
system.mem_ctrls.bytes_read::cpu15.inst          3584                       # Number of bytes read from this memory
system.mem_ctrls.bytes_read::cpu15.data          1216                       # Number of bytes read from this memory
system.mem_ctrls.bytes_read::total             143488                       # Number of bytes read from this memory
system.mem_ctrls.bytes_inst_read::cpu00.inst        39488                       # Number of instructions bytes read from this memory
system.mem_ctrls.bytes_inst_read::cpu01.inst         3072                       # Number of instructions bytes read from this memory
system.mem_ctrls.bytes_inst_read::cpu02.inst         3136                       # Number of instructions bytes read from this memory
system.mem_ctrls.bytes_inst_read::cpu03.inst         3136                       # Number of instructions bytes read from this memory
system.mem_ctrls.bytes_inst_read::cpu04.inst         3136                       # Number of instructions bytes read from this memory
system.mem_ctrls.bytes_inst_read::cpu05.inst         3200                       # Number of instructions bytes read from this memory
system.mem_ctrls.bytes_inst_read::cpu06.inst         3136                       # Number of instructions bytes read from this memory
system.mem_ctrls.bytes_inst_read::cpu07.inst         3136                       # Number of instructions bytes read from this memory
system.mem_ctrls.bytes_inst_read::cpu08.inst         3200                       # Number of instructions bytes read from this memory
system.mem_ctrls.bytes_inst_read::cpu09.inst         3328                       # Number of instructions bytes read from this memory
system.mem_ctrls.bytes_inst_read::cpu10.inst         3456                       # Number of instructions bytes read from this memory
system.mem_ctrls.bytes_inst_read::cpu11.inst         3456                       # Number of instructions bytes read from this memory
system.mem_ctrls.bytes_inst_read::cpu12.inst         3456                       # Number of instructions bytes read from this memory
system.mem_ctrls.bytes_inst_read::cpu13.inst         3520                       # Number of instructions bytes read from this memory
system.mem_ctrls.bytes_inst_read::cpu14.inst         3520                       # Number of instructions bytes read from this memory
system.mem_ctrls.bytes_inst_read::cpu15.inst         3584                       # Number of instructions bytes read from this memory
system.mem_ctrls.bytes_inst_read::total         88960                       # Number of instructions bytes read from this memory
system.mem_ctrls.bytes_written::writebacks         1728                       # Number of bytes written to this memory
system.mem_ctrls.bytes_written::total            1728                       # Number of bytes written to this memory
system.mem_ctrls.num_reads::cpu00.inst            617                       # Number of read requests responded to by this memory
system.mem_ctrls.num_reads::cpu00.data            582                       # Number of read requests responded to by this memory
system.mem_ctrls.num_reads::cpu01.inst             48                       # Number of read requests responded to by this memory
system.mem_ctrls.num_reads::cpu01.data             18                       # Number of read requests responded to by this memory
system.mem_ctrls.num_reads::cpu02.inst             49                       # Number of read requests responded to by this memory
system.mem_ctrls.num_reads::cpu02.data             17                       # Number of read requests responded to by this memory
system.mem_ctrls.num_reads::cpu03.inst             49                       # Number of read requests responded to by this memory
system.mem_ctrls.num_reads::cpu03.data             17                       # Number of read requests responded to by this memory
system.mem_ctrls.num_reads::cpu04.inst             49                       # Number of read requests responded to by this memory
system.mem_ctrls.num_reads::cpu04.data             18                       # Number of read requests responded to by this memory
system.mem_ctrls.num_reads::cpu05.inst             50                       # Number of read requests responded to by this memory
system.mem_ctrls.num_reads::cpu05.data             18                       # Number of read requests responded to by this memory
system.mem_ctrls.num_reads::cpu06.inst             49                       # Number of read requests responded to by this memory
system.mem_ctrls.num_reads::cpu06.data             18                       # Number of read requests responded to by this memory
system.mem_ctrls.num_reads::cpu07.inst             49                       # Number of read requests responded to by this memory
system.mem_ctrls.num_reads::cpu07.data             18                       # Number of read requests responded to by this memory
system.mem_ctrls.num_reads::cpu08.inst             50                       # Number of read requests responded to by this memory
system.mem_ctrls.num_reads::cpu08.data             19                       # Number of read requests responded to by this memory
system.mem_ctrls.num_reads::cpu09.inst             52                       # Number of read requests responded to by this memory
system.mem_ctrls.num_reads::cpu09.data             18                       # Number of read requests responded to by this memory
system.mem_ctrls.num_reads::cpu10.inst             54                       # Number of read requests responded to by this memory
system.mem_ctrls.num_reads::cpu10.data             18                       # Number of read requests responded to by this memory
system.mem_ctrls.num_reads::cpu11.inst             54                       # Number of read requests responded to by this memory
system.mem_ctrls.num_reads::cpu11.data             18                       # Number of read requests responded to by this memory
system.mem_ctrls.num_reads::cpu12.inst             54                       # Number of read requests responded to by this memory
system.mem_ctrls.num_reads::cpu12.data             18                       # Number of read requests responded to by this memory
system.mem_ctrls.num_reads::cpu13.inst             55                       # Number of read requests responded to by this memory
system.mem_ctrls.num_reads::cpu13.data             18                       # Number of read requests responded to by this memory
system.mem_ctrls.num_reads::cpu14.inst             55                       # Number of read requests responded to by this memory
system.mem_ctrls.num_reads::cpu14.data             18                       # Number of read requests responded to by this memory
system.mem_ctrls.num_reads::cpu15.inst             56                       # Number of read requests responded to by this memory
system.mem_ctrls.num_reads::cpu15.data             19                       # Number of read requests responded to by this memory
system.mem_ctrls.num_reads::total                2242                       # Number of read requests responded to by this memory
system.mem_ctrls.num_writes::writebacks            27                       # Number of write requests responded to by this memory
system.mem_ctrls.num_writes::total                 27                       # Number of write requests responded to by this memory
system.mem_ctrls.bw_read::cpu00.inst        566611423                       # Total read bandwidth from this memory (bytes/s)
system.mem_ctrls.bw_read::cpu00.data        534469770                       # Total read bandwidth from this memory (bytes/s)
system.mem_ctrls.bw_read::cpu01.inst         44079981                       # Total read bandwidth from this memory (bytes/s)
system.mem_ctrls.bw_read::cpu01.data         16529993                       # Total read bandwidth from this memory (bytes/s)
system.mem_ctrls.bw_read::cpu02.inst         44998314                       # Total read bandwidth from this memory (bytes/s)
system.mem_ctrls.bw_read::cpu02.data         15611660                       # Total read bandwidth from this memory (bytes/s)
system.mem_ctrls.bw_read::cpu03.inst         44998314                       # Total read bandwidth from this memory (bytes/s)
system.mem_ctrls.bw_read::cpu03.data         15611660                       # Total read bandwidth from this memory (bytes/s)
system.mem_ctrls.bw_read::cpu04.inst         44998314                       # Total read bandwidth from this memory (bytes/s)
system.mem_ctrls.bw_read::cpu04.data         16529993                       # Total read bandwidth from this memory (bytes/s)
system.mem_ctrls.bw_read::cpu05.inst         45916647                       # Total read bandwidth from this memory (bytes/s)
system.mem_ctrls.bw_read::cpu05.data         16529993                       # Total read bandwidth from this memory (bytes/s)
system.mem_ctrls.bw_read::cpu06.inst         44998314                       # Total read bandwidth from this memory (bytes/s)
system.mem_ctrls.bw_read::cpu06.data         16529993                       # Total read bandwidth from this memory (bytes/s)
system.mem_ctrls.bw_read::cpu07.inst         44998314                       # Total read bandwidth from this memory (bytes/s)
system.mem_ctrls.bw_read::cpu07.data         16529993                       # Total read bandwidth from this memory (bytes/s)
system.mem_ctrls.bw_read::cpu08.inst         45916647                       # Total read bandwidth from this memory (bytes/s)
system.mem_ctrls.bw_read::cpu08.data         17448326                       # Total read bandwidth from this memory (bytes/s)
system.mem_ctrls.bw_read::cpu09.inst         47753313                       # Total read bandwidth from this memory (bytes/s)
system.mem_ctrls.bw_read::cpu09.data         16529993                       # Total read bandwidth from this memory (bytes/s)
system.mem_ctrls.bw_read::cpu10.inst         49589979                       # Total read bandwidth from this memory (bytes/s)
system.mem_ctrls.bw_read::cpu10.data         16529993                       # Total read bandwidth from this memory (bytes/s)
system.mem_ctrls.bw_read::cpu11.inst         49589979                       # Total read bandwidth from this memory (bytes/s)
system.mem_ctrls.bw_read::cpu11.data         16529993                       # Total read bandwidth from this memory (bytes/s)
system.mem_ctrls.bw_read::cpu12.inst         49589979                       # Total read bandwidth from this memory (bytes/s)
system.mem_ctrls.bw_read::cpu12.data         16529993                       # Total read bandwidth from this memory (bytes/s)
system.mem_ctrls.bw_read::cpu13.inst         50508312                       # Total read bandwidth from this memory (bytes/s)
system.mem_ctrls.bw_read::cpu13.data         16529993                       # Total read bandwidth from this memory (bytes/s)
system.mem_ctrls.bw_read::cpu14.inst         50508312                       # Total read bandwidth from this memory (bytes/s)
system.mem_ctrls.bw_read::cpu14.data         16529993                       # Total read bandwidth from this memory (bytes/s)
system.mem_ctrls.bw_read::cpu15.inst         51426645                       # Total read bandwidth from this memory (bytes/s)
system.mem_ctrls.bw_read::cpu15.data         17448326                       # Total read bandwidth from this memory (bytes/s)
system.mem_ctrls.bw_read::total            2058902449                       # Total read bandwidth from this memory (bytes/s)
system.mem_ctrls.bw_inst_read::cpu00.inst    566611423                       # Instruction read bandwidth from this memory (bytes/s)
system.mem_ctrls.bw_inst_read::cpu01.inst     44079981                       # Instruction read bandwidth from this memory (bytes/s)
system.mem_ctrls.bw_inst_read::cpu02.inst     44998314                       # Instruction read bandwidth from this memory (bytes/s)
system.mem_ctrls.bw_inst_read::cpu03.inst     44998314                       # Instruction read bandwidth from this memory (bytes/s)
system.mem_ctrls.bw_inst_read::cpu04.inst     44998314                       # Instruction read bandwidth from this memory (bytes/s)
system.mem_ctrls.bw_inst_read::cpu05.inst     45916647                       # Instruction read bandwidth from this memory (bytes/s)
system.mem_ctrls.bw_inst_read::cpu06.inst     44998314                       # Instruction read bandwidth from this memory (bytes/s)
system.mem_ctrls.bw_inst_read::cpu07.inst     44998314                       # Instruction read bandwidth from this memory (bytes/s)
system.mem_ctrls.bw_inst_read::cpu08.inst     45916647                       # Instruction read bandwidth from this memory (bytes/s)
system.mem_ctrls.bw_inst_read::cpu09.inst     47753313                       # Instruction read bandwidth from this memory (bytes/s)
system.mem_ctrls.bw_inst_read::cpu10.inst     49589979                       # Instruction read bandwidth from this memory (bytes/s)
system.mem_ctrls.bw_inst_read::cpu11.inst     49589979                       # Instruction read bandwidth from this memory (bytes/s)
system.mem_ctrls.bw_inst_read::cpu12.inst     49589979                       # Instruction read bandwidth from this memory (bytes/s)
system.mem_ctrls.bw_inst_read::cpu13.inst     50508312                       # Instruction read bandwidth from this memory (bytes/s)
system.mem_ctrls.bw_inst_read::cpu14.inst     50508312                       # Instruction read bandwidth from this memory (bytes/s)
system.mem_ctrls.bw_inst_read::cpu15.inst     51426645                       # Instruction read bandwidth from this memory (bytes/s)
system.mem_ctrls.bw_inst_read::total       1276482785                       # Instruction read bandwidth from this memory (bytes/s)
system.mem_ctrls.bw_write::writebacks        24794989                       # Write bandwidth from this memory (bytes/s)
system.mem_ctrls.bw_write::total             24794989                       # Write bandwidth from this memory (bytes/s)
system.mem_ctrls.bw_total::writebacks        24794989                       # Total bandwidth to/from this memory (bytes/s)
system.mem_ctrls.bw_total::cpu00.inst       566611423                       # Total bandwidth to/from this memory (bytes/s)
system.mem_ctrls.bw_total::cpu00.data       534469770                       # Total bandwidth to/from this memory (bytes/s)
system.mem_ctrls.bw_total::cpu01.inst        44079981                       # Total bandwidth to/from this memory (bytes/s)
system.mem_ctrls.bw_total::cpu01.data        16529993                       # Total bandwidth to/from this memory (bytes/s)
system.mem_ctrls.bw_total::cpu02.inst        44998314                       # Total bandwidth to/from this memory (bytes/s)
system.mem_ctrls.bw_total::cpu02.data        15611660                       # Total bandwidth to/from this memory (bytes/s)
system.mem_ctrls.bw_total::cpu03.inst        44998314                       # Total bandwidth to/from this memory (bytes/s)
system.mem_ctrls.bw_total::cpu03.data        15611660                       # Total bandwidth to/from this memory (bytes/s)
system.mem_ctrls.bw_total::cpu04.inst        44998314                       # Total bandwidth to/from this memory (bytes/s)
system.mem_ctrls.bw_total::cpu04.data        16529993                       # Total bandwidth to/from this memory (bytes/s)
system.mem_ctrls.bw_total::cpu05.inst        45916647                       # Total bandwidth to/from this memory (bytes/s)
system.mem_ctrls.bw_total::cpu05.data        16529993                       # Total bandwidth to/from this memory (bytes/s)
system.mem_ctrls.bw_total::cpu06.inst        44998314                       # Total bandwidth to/from this memory (bytes/s)
system.mem_ctrls.bw_total::cpu06.data        16529993                       # Total bandwidth to/from this memory (bytes/s)
system.mem_ctrls.bw_total::cpu07.inst        44998314                       # Total bandwidth to/from this memory (bytes/s)
system.mem_ctrls.bw_total::cpu07.data        16529993                       # Total bandwidth to/from this memory (bytes/s)
system.mem_ctrls.bw_total::cpu08.inst        45916647                       # Total bandwidth to/from this memory (bytes/s)
system.mem_ctrls.bw_total::cpu08.data        17448326                       # Total bandwidth to/from this memory (bytes/s)
system.mem_ctrls.bw_total::cpu09.inst        47753313                       # Total bandwidth to/from this memory (bytes/s)
system.mem_ctrls.bw_total::cpu09.data        16529993                       # Total bandwidth to/from this memory (bytes/s)
system.mem_ctrls.bw_total::cpu10.inst        49589979                       # Total bandwidth to/from this memory (bytes/s)
system.mem_ctrls.bw_total::cpu10.data        16529993                       # Total bandwidth to/from this memory (bytes/s)
system.mem_ctrls.bw_total::cpu11.inst        49589979                       # Total bandwidth to/from this memory (bytes/s)
system.mem_ctrls.bw_total::cpu11.data        16529993                       # Total bandwidth to/from this memory (bytes/s)
system.mem_ctrls.bw_total::cpu12.inst        49589979                       # Total bandwidth to/from this memory (bytes/s)
system.mem_ctrls.bw_total::cpu12.data        16529993                       # Total bandwidth to/from this memory (bytes/s)
system.mem_ctrls.bw_total::cpu13.inst        50508312                       # Total bandwidth to/from this memory (bytes/s)
system.mem_ctrls.bw_total::cpu13.data        16529993                       # Total bandwidth to/from this memory (bytes/s)
system.mem_ctrls.bw_total::cpu14.inst        50508312                       # Total bandwidth to/from this memory (bytes/s)
system.mem_ctrls.bw_total::cpu14.data        16529993                       # Total bandwidth to/from this memory (bytes/s)
system.mem_ctrls.bw_total::cpu15.inst        51426645                       # Total bandwidth to/from this memory (bytes/s)
system.mem_ctrls.bw_total::cpu15.data        17448326                       # Total bandwidth to/from this memory (bytes/s)
system.mem_ctrls.bw_total::total           2083697438                       # Total bandwidth to/from this memory (bytes/s)
system.mem_ctrls.readReqs                        2243                       # Number of read requests accepted
system.mem_ctrls.writeReqs                         27                       # Number of write requests accepted
system.mem_ctrls.readBursts                      2243                       # Number of DRAM read bursts, including those serviced by the write queue
system.mem_ctrls.writeBursts                       27                       # Number of DRAM write bursts, including those merged in the write queue
system.mem_ctrls.bytesReadDRAM                 140160                       # Total number of bytes read from DRAM
system.mem_ctrls.bytesReadWrQ                    3392                       # Total number of bytes read from write queue
system.mem_ctrls.bytesWritten                       0                       # Total number of bytes written to DRAM
system.mem_ctrls.bytesReadSys                  143552                       # Total read bytes from the system interface side
system.mem_ctrls.bytesWrittenSys                 1728                       # Total written bytes from the system interface side
system.mem_ctrls.servicedByWrQ                     53                       # Number of DRAM read bursts serviced by the write queue
system.mem_ctrls.mergedWrBursts                     2                       # Number of DRAM write bursts merged with an existing one
system.mem_ctrls.neitherReadNorWriteReqs            9                       # Number of requests that are neither read nor write
system.mem_ctrls.perBankRdBursts::0               267                       # Per bank write bursts
system.mem_ctrls.perBankRdBursts::1               618                       # Per bank write bursts
system.mem_ctrls.perBankRdBursts::2               295                       # Per bank write bursts
system.mem_ctrls.perBankRdBursts::3               303                       # Per bank write bursts
system.mem_ctrls.perBankRdBursts::4               207                       # Per bank write bursts
system.mem_ctrls.perBankRdBursts::5               114                       # Per bank write bursts
system.mem_ctrls.perBankRdBursts::6               141                       # Per bank write bursts
system.mem_ctrls.perBankRdBursts::7                33                       # Per bank write bursts
system.mem_ctrls.perBankRdBursts::8                16                       # Per bank write bursts
system.mem_ctrls.perBankRdBursts::9                 8                       # Per bank write bursts
system.mem_ctrls.perBankRdBursts::10                0                       # Per bank write bursts
system.mem_ctrls.perBankRdBursts::11               15                       # Per bank write bursts
system.mem_ctrls.perBankRdBursts::12                8                       # Per bank write bursts
system.mem_ctrls.perBankRdBursts::13               40                       # Per bank write bursts
system.mem_ctrls.perBankRdBursts::14               39                       # Per bank write bursts
system.mem_ctrls.perBankRdBursts::15               86                       # Per bank write bursts
system.mem_ctrls.perBankWrBursts::0                 0                       # Per bank write bursts
system.mem_ctrls.perBankWrBursts::1                 0                       # Per bank write bursts
system.mem_ctrls.perBankWrBursts::2                 0                       # Per bank write bursts
system.mem_ctrls.perBankWrBursts::3                 0                       # Per bank write bursts
system.mem_ctrls.perBankWrBursts::4                 0                       # Per bank write bursts
system.mem_ctrls.perBankWrBursts::5                 0                       # Per bank write bursts
system.mem_ctrls.perBankWrBursts::6                 0                       # Per bank write bursts
system.mem_ctrls.perBankWrBursts::7                 0                       # Per bank write bursts
system.mem_ctrls.perBankWrBursts::8                 0                       # Per bank write bursts
system.mem_ctrls.perBankWrBursts::9                 0                       # Per bank write bursts
system.mem_ctrls.perBankWrBursts::10                0                       # Per bank write bursts
system.mem_ctrls.perBankWrBursts::11                0                       # Per bank write bursts
system.mem_ctrls.perBankWrBursts::12                0                       # Per bank write bursts
system.mem_ctrls.perBankWrBursts::13                0                       # Per bank write bursts
system.mem_ctrls.perBankWrBursts::14                0                       # Per bank write bursts
system.mem_ctrls.perBankWrBursts::15                0                       # Per bank write bursts
system.mem_ctrls.numRdRetry                        37                       # Number of times read queue was full causing retry
system.mem_ctrls.numWrRetry                         0                       # Number of times write queue was full causing retry
system.mem_ctrls.totGap                      69689000                       # Total gap between requests
system.mem_ctrls.readPktSize::0                     0                       # Read request sizes (log2)
system.mem_ctrls.readPktSize::1                     0                       # Read request sizes (log2)
system.mem_ctrls.readPktSize::2                     0                       # Read request sizes (log2)
system.mem_ctrls.readPktSize::3                     0                       # Read request sizes (log2)
system.mem_ctrls.readPktSize::4                     0                       # Read request sizes (log2)
system.mem_ctrls.readPktSize::5                     0                       # Read request sizes (log2)
system.mem_ctrls.readPktSize::6                  2243                       # Read request sizes (log2)
system.mem_ctrls.writePktSize::0                    0                       # Write request sizes (log2)
system.mem_ctrls.writePktSize::1                    0                       # Write request sizes (log2)
system.mem_ctrls.writePktSize::2                    0                       # Write request sizes (log2)
system.mem_ctrls.writePktSize::3                    0                       # Write request sizes (log2)
system.mem_ctrls.writePktSize::4                    0                       # Write request sizes (log2)
system.mem_ctrls.writePktSize::5                    0                       # Write request sizes (log2)
system.mem_ctrls.writePktSize::6                   27                       # Write request sizes (log2)
system.mem_ctrls.rdQLenPdf::0                     828                       # What read queue length does an incoming req see
system.mem_ctrls.rdQLenPdf::1                     320                       # What read queue length does an incoming req see
system.mem_ctrls.rdQLenPdf::2                     129                       # What read queue length does an incoming req see
system.mem_ctrls.rdQLenPdf::3                      84                       # What read queue length does an incoming req see
system.mem_ctrls.rdQLenPdf::4                      73                       # What read queue length does an incoming req see
system.mem_ctrls.rdQLenPdf::5                      64                       # What read queue length does an incoming req see
system.mem_ctrls.rdQLenPdf::6                      76                       # What read queue length does an incoming req see
system.mem_ctrls.rdQLenPdf::7                      71                       # What read queue length does an incoming req see
system.mem_ctrls.rdQLenPdf::8                      81                       # What read queue length does an incoming req see
system.mem_ctrls.rdQLenPdf::9                      62                       # What read queue length does an incoming req see
system.mem_ctrls.rdQLenPdf::10                     54                       # What read queue length does an incoming req see
system.mem_ctrls.rdQLenPdf::11                     38                       # What read queue length does an incoming req see
system.mem_ctrls.rdQLenPdf::12                     30                       # What read queue length does an incoming req see
system.mem_ctrls.rdQLenPdf::13                     16                       # What read queue length does an incoming req see
system.mem_ctrls.rdQLenPdf::14                     13                       # What read queue length does an incoming req see
system.mem_ctrls.rdQLenPdf::15                      4                       # What read queue length does an incoming req see
system.mem_ctrls.rdQLenPdf::16                     12                       # What read queue length does an incoming req see
system.mem_ctrls.rdQLenPdf::17                     16                       # What read queue length does an incoming req see
system.mem_ctrls.rdQLenPdf::18                      9                       # What read queue length does an incoming req see
system.mem_ctrls.rdQLenPdf::19                     13                       # What read queue length does an incoming req see
system.mem_ctrls.rdQLenPdf::20                     12                       # What read queue length does an incoming req see
system.mem_ctrls.rdQLenPdf::21                     11                       # What read queue length does an incoming req see
system.mem_ctrls.rdQLenPdf::22                     15                       # What read queue length does an incoming req see
system.mem_ctrls.rdQLenPdf::23                     19                       # What read queue length does an incoming req see
system.mem_ctrls.rdQLenPdf::24                     27                       # What read queue length does an incoming req see
system.mem_ctrls.rdQLenPdf::25                     33                       # What read queue length does an incoming req see
system.mem_ctrls.rdQLenPdf::26                     22                       # What read queue length does an incoming req see
system.mem_ctrls.rdQLenPdf::27                      6                       # What read queue length does an incoming req see
system.mem_ctrls.rdQLenPdf::28                      4                       # What read queue length does an incoming req see
system.mem_ctrls.rdQLenPdf::29                      4                       # What read queue length does an incoming req see
system.mem_ctrls.rdQLenPdf::30                      4                       # What read queue length does an incoming req see
system.mem_ctrls.rdQLenPdf::31                     40                       # What read queue length does an incoming req see
system.mem_ctrls.wrQLenPdf::0                       1                       # What write queue length does an incoming req see
system.mem_ctrls.wrQLenPdf::1                       1                       # What write queue length does an incoming req see
system.mem_ctrls.wrQLenPdf::2                       1                       # What write queue length does an incoming req see
system.mem_ctrls.wrQLenPdf::3                       1                       # What write queue length does an incoming req see
system.mem_ctrls.wrQLenPdf::4                       1                       # What write queue length does an incoming req see
system.mem_ctrls.wrQLenPdf::5                       1                       # What write queue length does an incoming req see
system.mem_ctrls.wrQLenPdf::6                       1                       # What write queue length does an incoming req see
system.mem_ctrls.wrQLenPdf::7                       1                       # What write queue length does an incoming req see
system.mem_ctrls.wrQLenPdf::8                       1                       # What write queue length does an incoming req see
system.mem_ctrls.wrQLenPdf::9                       1                       # What write queue length does an incoming req see
system.mem_ctrls.wrQLenPdf::10                      1                       # What write queue length does an incoming req see
system.mem_ctrls.wrQLenPdf::11                      1                       # What write queue length does an incoming req see
system.mem_ctrls.wrQLenPdf::12                      1                       # What write queue length does an incoming req see
system.mem_ctrls.wrQLenPdf::13                      1                       # What write queue length does an incoming req see
system.mem_ctrls.wrQLenPdf::14                      1                       # What write queue length does an incoming req see
system.mem_ctrls.wrQLenPdf::15                      1                       # What write queue length does an incoming req see
system.mem_ctrls.wrQLenPdf::16                      1                       # What write queue length does an incoming req see
system.mem_ctrls.wrQLenPdf::17                      1                       # What write queue length does an incoming req see
system.mem_ctrls.wrQLenPdf::18                      1                       # What write queue length does an incoming req see
system.mem_ctrls.wrQLenPdf::19                      1                       # What write queue length does an incoming req see
system.mem_ctrls.wrQLenPdf::20                      1                       # What write queue length does an incoming req see
system.mem_ctrls.wrQLenPdf::21                      1                       # What write queue length does an incoming req see
system.mem_ctrls.wrQLenPdf::22                      1                       # What write queue length does an incoming req see
system.mem_ctrls.wrQLenPdf::23                      1                       # What write queue length does an incoming req see
system.mem_ctrls.wrQLenPdf::24                      1                       # What write queue length does an incoming req see
system.mem_ctrls.wrQLenPdf::25                      0                       # What write queue length does an incoming req see
system.mem_ctrls.wrQLenPdf::26                      0                       # What write queue length does an incoming req see
system.mem_ctrls.wrQLenPdf::27                      0                       # What write queue length does an incoming req see
system.mem_ctrls.wrQLenPdf::28                      0                       # What write queue length does an incoming req see
system.mem_ctrls.wrQLenPdf::29                      0                       # What write queue length does an incoming req see
system.mem_ctrls.wrQLenPdf::30                      0                       # What write queue length does an incoming req see
system.mem_ctrls.wrQLenPdf::31                      0                       # What write queue length does an incoming req see
system.mem_ctrls.wrQLenPdf::32                      0                       # What write queue length does an incoming req see
system.mem_ctrls.wrQLenPdf::33                      0                       # What write queue length does an incoming req see
system.mem_ctrls.wrQLenPdf::34                      0                       # What write queue length does an incoming req see
system.mem_ctrls.wrQLenPdf::35                      0                       # What write queue length does an incoming req see
system.mem_ctrls.wrQLenPdf::36                      0                       # What write queue length does an incoming req see
system.mem_ctrls.wrQLenPdf::37                      0                       # What write queue length does an incoming req see
system.mem_ctrls.wrQLenPdf::38                      0                       # What write queue length does an incoming req see
system.mem_ctrls.wrQLenPdf::39                      0                       # What write queue length does an incoming req see
system.mem_ctrls.wrQLenPdf::40                      0                       # What write queue length does an incoming req see
system.mem_ctrls.wrQLenPdf::41                      0                       # What write queue length does an incoming req see
system.mem_ctrls.wrQLenPdf::42                      0                       # What write queue length does an incoming req see
system.mem_ctrls.wrQLenPdf::43                      0                       # What write queue length does an incoming req see
system.mem_ctrls.wrQLenPdf::44                      0                       # What write queue length does an incoming req see
system.mem_ctrls.wrQLenPdf::45                      0                       # What write queue length does an incoming req see
system.mem_ctrls.wrQLenPdf::46                      0                       # What write queue length does an incoming req see
system.mem_ctrls.wrQLenPdf::47                      0                       # What write queue length does an incoming req see
system.mem_ctrls.wrQLenPdf::48                      0                       # What write queue length does an incoming req see
system.mem_ctrls.wrQLenPdf::49                      0                       # What write queue length does an incoming req see
system.mem_ctrls.wrQLenPdf::50                      0                       # What write queue length does an incoming req see
system.mem_ctrls.wrQLenPdf::51                      0                       # What write queue length does an incoming req see
system.mem_ctrls.wrQLenPdf::52                      0                       # What write queue length does an incoming req see
system.mem_ctrls.wrQLenPdf::53                      0                       # What write queue length does an incoming req see
system.mem_ctrls.wrQLenPdf::54                      0                       # What write queue length does an incoming req see
system.mem_ctrls.wrQLenPdf::55                      0                       # What write queue length does an incoming req see
system.mem_ctrls.wrQLenPdf::56                      0                       # What write queue length does an incoming req see
system.mem_ctrls.wrQLenPdf::57                      0                       # What write queue length does an incoming req see
system.mem_ctrls.wrQLenPdf::58                      0                       # What write queue length does an incoming req see
system.mem_ctrls.wrQLenPdf::59                      0                       # What write queue length does an incoming req see
system.mem_ctrls.wrQLenPdf::60                      0                       # What write queue length does an incoming req see
system.mem_ctrls.wrQLenPdf::61                      0                       # What write queue length does an incoming req see
system.mem_ctrls.wrQLenPdf::62                      0                       # What write queue length does an incoming req see
system.mem_ctrls.wrQLenPdf::63                      0                       # What write queue length does an incoming req see
system.mem_ctrls.bytesPerActivate::samples          427                       # Bytes accessed per row activation
system.mem_ctrls.bytesPerActivate::mean    322.248244                       # Bytes accessed per row activation
system.mem_ctrls.bytesPerActivate::gmean   175.832363                       # Bytes accessed per row activation
system.mem_ctrls.bytesPerActivate::stdev   359.138516                       # Bytes accessed per row activation
system.mem_ctrls.bytesPerActivate::0-127          187     43.79%     43.79% # Bytes accessed per row activation
system.mem_ctrls.bytesPerActivate::128-255           81     18.97%     62.76% # Bytes accessed per row activation
system.mem_ctrls.bytesPerActivate::256-383           33      7.73%     70.49% # Bytes accessed per row activation
system.mem_ctrls.bytesPerActivate::384-511           23      5.39%     75.88% # Bytes accessed per row activation
system.mem_ctrls.bytesPerActivate::512-639           13      3.04%     78.92% # Bytes accessed per row activation
system.mem_ctrls.bytesPerActivate::640-767           10      2.34%     81.26% # Bytes accessed per row activation
system.mem_ctrls.bytesPerActivate::768-895            4      0.94%     82.20% # Bytes accessed per row activation
system.mem_ctrls.bytesPerActivate::896-1023            5      1.17%     83.37% # Bytes accessed per row activation
system.mem_ctrls.bytesPerActivate::1024-1151           71     16.63%    100.00% # Bytes accessed per row activation
system.mem_ctrls.bytesPerActivate::total          427                       # Bytes accessed per row activation
system.mem_ctrls.totQLat                     71447250                       # Total ticks spent queuing
system.mem_ctrls.totMemAccLat               112509750                       # Total ticks spent from burst creation until serviced by the DRAM
system.mem_ctrls.totBusLat                   10950000                       # Total ticks spent in databus transfers
system.mem_ctrls.avgQLat                     32624.32                       # Average queueing delay per DRAM burst
system.mem_ctrls.avgBusLat                    5000.00                       # Average bus latency per DRAM burst
system.mem_ctrls.avgMemAccLat                51374.32                       # Average memory access latency per DRAM burst
system.mem_ctrls.avgRdBW                      2011.15                       # Average DRAM read bandwidth in MiByte/s
system.mem_ctrls.avgWrBW                         0.00                       # Average achieved write bandwidth in MiByte/s
system.mem_ctrls.avgRdBWSys                   2059.82                       # Average system read bandwidth in MiByte/s
system.mem_ctrls.avgWrBWSys                     24.79                       # Average system write bandwidth in MiByte/s
system.mem_ctrls.peakBW                      12800.00                       # Theoretical peak bandwidth in MiByte/s
system.mem_ctrls.busUtil                        15.71                       # Data bus utilization in percentage
system.mem_ctrls.busUtilRead                    15.71                       # Data bus utilization in percentage for reads
system.mem_ctrls.busUtilWrite                    0.00                       # Data bus utilization in percentage for writes
system.mem_ctrls.avgRdQLen                       2.58                       # Average read queue length when enqueuing
system.mem_ctrls.avgWrQLen                       6.69                       # Average write queue length when enqueuing
system.mem_ctrls.readRowHits                     1752                       # Number of row buffer hits during reads
system.mem_ctrls.writeRowHits                       0                       # Number of row buffer hits during writes
system.mem_ctrls.readRowHitRate                 80.00                       # Row buffer hit rate for reads
system.mem_ctrls.writeRowHitRate                 0.00                       # Row buffer hit rate for writes
system.mem_ctrls.avgGap                      30700.00                       # Average gap between requests
system.mem_ctrls.pageHitRate                    79.10                       # Row buffer hit rate, read and write combined
system.mem_ctrls_0.actEnergy                  2804760                       # Energy for activate commands per rank (pJ)
system.mem_ctrls_0.preEnergy                  1530375                       # Energy for precharge commands per rank (pJ)
system.mem_ctrls_0.readEnergy                13876200                       # Energy for read commands per rank (pJ)
system.mem_ctrls_0.writeEnergy                      0                       # Energy for write commands per rank (pJ)
system.mem_ctrls_0.refreshEnergy              4068480                       # Energy for refresh commands per rank (pJ)
system.mem_ctrls_0.actBackEnergy             41657310                       # Energy for active background per rank (pJ)
system.mem_ctrls_0.preBackEnergy               988500                       # Energy for precharge background per rank (pJ)
system.mem_ctrls_0.totalEnergy               64925625                       # Total energy per rank (pJ)
system.mem_ctrls_0.averagePower           1037.979616                       # Core power per rank (mW)
system.mem_ctrls_0.memoryStateTime::IDLE      1886000                       # Time in different power states
system.mem_ctrls_0.memoryStateTime::REF       2080000                       # Time in different power states
system.mem_ctrls_0.memoryStateTime::PRE_PDN            0                       # Time in different power states
system.mem_ctrls_0.memoryStateTime::ACT      59098500                       # Time in different power states
system.mem_ctrls_0.memoryStateTime::ACT_PDN            0                       # Time in different power states
system.mem_ctrls_1.actEnergy                   234360                       # Energy for activate commands per rank (pJ)
system.mem_ctrls_1.preEnergy                   127875                       # Energy for precharge commands per rank (pJ)
system.mem_ctrls_1.readEnergy                 1310400                       # Energy for read commands per rank (pJ)
system.mem_ctrls_1.writeEnergy                      0                       # Energy for write commands per rank (pJ)
system.mem_ctrls_1.refreshEnergy              4068480                       # Energy for refresh commands per rank (pJ)
system.mem_ctrls_1.actBackEnergy             29161485                       # Energy for active background per rank (pJ)
system.mem_ctrls_1.preBackEnergy             11949750                       # Energy for precharge background per rank (pJ)
system.mem_ctrls_1.totalEnergy               46852350                       # Total energy per rank (pJ)
system.mem_ctrls_1.averagePower            749.038369                       # Core power per rank (mW)
system.mem_ctrls_1.memoryStateTime::IDLE     21301500                       # Time in different power states
system.mem_ctrls_1.memoryStateTime::REF       2080000                       # Time in different power states
system.mem_ctrls_1.memoryStateTime::PRE_PDN            0                       # Time in different power states
system.mem_ctrls_1.memoryStateTime::ACT      40789500                       # Time in different power states
system.mem_ctrls_1.memoryStateTime::ACT_PDN            0                       # Time in different power states
system.cpu00.branchPred.lookups                 11446                       # Number of BP lookups
system.cpu00.branchPred.condPredicted            8989                       # Number of conditional branches predicted
system.cpu00.branchPred.condIncorrect            1384                       # Number of conditional branches incorrect
system.cpu00.branchPred.BTBLookups               5715                       # Number of BTB lookups
system.cpu00.branchPred.BTBHits                  4908                       # Number of BTB hits
system.cpu00.branchPred.BTBCorrect                  0                       # Number of correct BTB predictions (this stat may not work properly.
system.cpu00.branchPred.BTBHitPct           85.879265                       # BTB Hit Percentage
system.cpu00.branchPred.usedRAS                   850                       # Number of times the RAS was used to get a target.
system.cpu00.branchPred.RASInCorrect                7                       # Number of incorrect RAS predictions.
system.cpu_voltage_domain.voltage                   1                       # Voltage in Volts
system.cpu_clk_domain.clock                       500                       # Clock period in ticks
system.cpu00.dstage2_mmu.stage2_tlb.walker.walks            0                       # Table walker walks requested
system.cpu00.dstage2_mmu.stage2_tlb.walker.walkRequestOrigin_Requested::Data            0                       # Table walker requests started/completed, data/inst
system.cpu00.dstage2_mmu.stage2_tlb.walker.walkRequestOrigin_Requested::Inst            0                       # Table walker requests started/completed, data/inst
system.cpu00.dstage2_mmu.stage2_tlb.walker.walkRequestOrigin_Requested::total            0                       # Table walker requests started/completed, data/inst
system.cpu00.dstage2_mmu.stage2_tlb.walker.walkRequestOrigin_Completed::Data            0                       # Table walker requests started/completed, data/inst
system.cpu00.dstage2_mmu.stage2_tlb.walker.walkRequestOrigin_Completed::Inst            0                       # Table walker requests started/completed, data/inst
system.cpu00.dstage2_mmu.stage2_tlb.walker.walkRequestOrigin_Completed::total            0                       # Table walker requests started/completed, data/inst
system.cpu00.dstage2_mmu.stage2_tlb.walker.walkRequestOrigin::total            0                       # Table walker requests started/completed, data/inst
system.cpu00.dstage2_mmu.stage2_tlb.inst_hits            0                       # ITB inst hits
system.cpu00.dstage2_mmu.stage2_tlb.inst_misses            0                       # ITB inst misses
system.cpu00.dstage2_mmu.stage2_tlb.read_hits            0                       # DTB read hits
system.cpu00.dstage2_mmu.stage2_tlb.read_misses            0                       # DTB read misses
system.cpu00.dstage2_mmu.stage2_tlb.write_hits            0                       # DTB write hits
system.cpu00.dstage2_mmu.stage2_tlb.write_misses            0                       # DTB write misses
system.cpu00.dstage2_mmu.stage2_tlb.flush_tlb            0                       # Number of times complete TLB was flushed
system.cpu00.dstage2_mmu.stage2_tlb.flush_tlb_mva            0                       # Number of times TLB was flushed by MVA
system.cpu00.dstage2_mmu.stage2_tlb.flush_tlb_mva_asid            0                       # Number of times TLB was flushed by MVA & ASID
system.cpu00.dstage2_mmu.stage2_tlb.flush_tlb_asid            0                       # Number of times TLB was flushed by ASID
system.cpu00.dstage2_mmu.stage2_tlb.flush_entries            0                       # Number of entries that have been flushed from TLB
system.cpu00.dstage2_mmu.stage2_tlb.align_faults            0                       # Number of TLB faults due to alignment restrictions
system.cpu00.dstage2_mmu.stage2_tlb.prefetch_faults            0                       # Number of TLB faults due to prefetch
system.cpu00.dstage2_mmu.stage2_tlb.domain_faults            0                       # Number of TLB faults due to domain restrictions
system.cpu00.dstage2_mmu.stage2_tlb.perms_faults            0                       # Number of TLB faults due to permissions restrictions
system.cpu00.dstage2_mmu.stage2_tlb.read_accesses            0                       # DTB read accesses
system.cpu00.dstage2_mmu.stage2_tlb.write_accesses            0                       # DTB write accesses
system.cpu00.dstage2_mmu.stage2_tlb.inst_accesses            0                       # ITB inst accesses
system.cpu00.dstage2_mmu.stage2_tlb.hits            0                       # DTB hits
system.cpu00.dstage2_mmu.stage2_tlb.misses            0                       # DTB misses
system.cpu00.dstage2_mmu.stage2_tlb.accesses            0                       # DTB accesses
system.cpu00.dtb.walker.walks                       0                       # Table walker walks requested
system.cpu00.dtb.walker.walkRequestOrigin_Requested::Data            0                       # Table walker requests started/completed, data/inst
system.cpu00.dtb.walker.walkRequestOrigin_Requested::Inst            0                       # Table walker requests started/completed, data/inst
system.cpu00.dtb.walker.walkRequestOrigin_Requested::total            0                       # Table walker requests started/completed, data/inst
system.cpu00.dtb.walker.walkRequestOrigin_Completed::Data            0                       # Table walker requests started/completed, data/inst
system.cpu00.dtb.walker.walkRequestOrigin_Completed::Inst            0                       # Table walker requests started/completed, data/inst
system.cpu00.dtb.walker.walkRequestOrigin_Completed::total            0                       # Table walker requests started/completed, data/inst
system.cpu00.dtb.walker.walkRequestOrigin::total            0                       # Table walker requests started/completed, data/inst
system.cpu00.dtb.inst_hits                          0                       # ITB inst hits
system.cpu00.dtb.inst_misses                        0                       # ITB inst misses
system.cpu00.dtb.read_hits                          0                       # DTB read hits
system.cpu00.dtb.read_misses                        0                       # DTB read misses
system.cpu00.dtb.write_hits                         0                       # DTB write hits
system.cpu00.dtb.write_misses                       0                       # DTB write misses
system.cpu00.dtb.flush_tlb                          0                       # Number of times complete TLB was flushed
system.cpu00.dtb.flush_tlb_mva                      0                       # Number of times TLB was flushed by MVA
system.cpu00.dtb.flush_tlb_mva_asid                 0                       # Number of times TLB was flushed by MVA & ASID
system.cpu00.dtb.flush_tlb_asid                     0                       # Number of times TLB was flushed by ASID
system.cpu00.dtb.flush_entries                      0                       # Number of entries that have been flushed from TLB
system.cpu00.dtb.align_faults                       0                       # Number of TLB faults due to alignment restrictions
system.cpu00.dtb.prefetch_faults                    0                       # Number of TLB faults due to prefetch
system.cpu00.dtb.domain_faults                      0                       # Number of TLB faults due to domain restrictions
system.cpu00.dtb.perms_faults                       0                       # Number of TLB faults due to permissions restrictions
system.cpu00.dtb.read_accesses                      0                       # DTB read accesses
system.cpu00.dtb.write_accesses                     0                       # DTB write accesses
system.cpu00.dtb.inst_accesses                      0                       # ITB inst accesses
system.cpu00.dtb.hits                               0                       # DTB hits
system.cpu00.dtb.misses                             0                       # DTB misses
system.cpu00.dtb.accesses                           0                       # DTB accesses
system.cpu00.istage2_mmu.stage2_tlb.walker.walks            0                       # Table walker walks requested
system.cpu00.istage2_mmu.stage2_tlb.walker.walkRequestOrigin_Requested::Data            0                       # Table walker requests started/completed, data/inst
system.cpu00.istage2_mmu.stage2_tlb.walker.walkRequestOrigin_Requested::Inst            0                       # Table walker requests started/completed, data/inst
system.cpu00.istage2_mmu.stage2_tlb.walker.walkRequestOrigin_Requested::total            0                       # Table walker requests started/completed, data/inst
system.cpu00.istage2_mmu.stage2_tlb.walker.walkRequestOrigin_Completed::Data            0                       # Table walker requests started/completed, data/inst
system.cpu00.istage2_mmu.stage2_tlb.walker.walkRequestOrigin_Completed::Inst            0                       # Table walker requests started/completed, data/inst
system.cpu00.istage2_mmu.stage2_tlb.walker.walkRequestOrigin_Completed::total            0                       # Table walker requests started/completed, data/inst
system.cpu00.istage2_mmu.stage2_tlb.walker.walkRequestOrigin::total            0                       # Table walker requests started/completed, data/inst
system.cpu00.istage2_mmu.stage2_tlb.inst_hits            0                       # ITB inst hits
system.cpu00.istage2_mmu.stage2_tlb.inst_misses            0                       # ITB inst misses
system.cpu00.istage2_mmu.stage2_tlb.read_hits            0                       # DTB read hits
system.cpu00.istage2_mmu.stage2_tlb.read_misses            0                       # DTB read misses
system.cpu00.istage2_mmu.stage2_tlb.write_hits            0                       # DTB write hits
system.cpu00.istage2_mmu.stage2_tlb.write_misses            0                       # DTB write misses
system.cpu00.istage2_mmu.stage2_tlb.flush_tlb            0                       # Number of times complete TLB was flushed
system.cpu00.istage2_mmu.stage2_tlb.flush_tlb_mva            0                       # Number of times TLB was flushed by MVA
system.cpu00.istage2_mmu.stage2_tlb.flush_tlb_mva_asid            0                       # Number of times TLB was flushed by MVA & ASID
system.cpu00.istage2_mmu.stage2_tlb.flush_tlb_asid            0                       # Number of times TLB was flushed by ASID
system.cpu00.istage2_mmu.stage2_tlb.flush_entries            0                       # Number of entries that have been flushed from TLB
system.cpu00.istage2_mmu.stage2_tlb.align_faults            0                       # Number of TLB faults due to alignment restrictions
system.cpu00.istage2_mmu.stage2_tlb.prefetch_faults            0                       # Number of TLB faults due to prefetch
system.cpu00.istage2_mmu.stage2_tlb.domain_faults            0                       # Number of TLB faults due to domain restrictions
system.cpu00.istage2_mmu.stage2_tlb.perms_faults            0                       # Number of TLB faults due to permissions restrictions
system.cpu00.istage2_mmu.stage2_tlb.read_accesses            0                       # DTB read accesses
system.cpu00.istage2_mmu.stage2_tlb.write_accesses            0                       # DTB write accesses
system.cpu00.istage2_mmu.stage2_tlb.inst_accesses            0                       # ITB inst accesses
system.cpu00.istage2_mmu.stage2_tlb.hits            0                       # DTB hits
system.cpu00.istage2_mmu.stage2_tlb.misses            0                       # DTB misses
system.cpu00.istage2_mmu.stage2_tlb.accesses            0                       # DTB accesses
system.cpu00.itb.walker.walks                       0                       # Table walker walks requested
system.cpu00.itb.walker.walkRequestOrigin_Requested::Data            0                       # Table walker requests started/completed, data/inst
system.cpu00.itb.walker.walkRequestOrigin_Requested::Inst            0                       # Table walker requests started/completed, data/inst
system.cpu00.itb.walker.walkRequestOrigin_Requested::total            0                       # Table walker requests started/completed, data/inst
system.cpu00.itb.walker.walkRequestOrigin_Completed::Data            0                       # Table walker requests started/completed, data/inst
system.cpu00.itb.walker.walkRequestOrigin_Completed::Inst            0                       # Table walker requests started/completed, data/inst
system.cpu00.itb.walker.walkRequestOrigin_Completed::total            0                       # Table walker requests started/completed, data/inst
system.cpu00.itb.walker.walkRequestOrigin::total            0                       # Table walker requests started/completed, data/inst
system.cpu00.itb.inst_hits                          0                       # ITB inst hits
system.cpu00.itb.inst_misses                        0                       # ITB inst misses
system.cpu00.itb.read_hits                          0                       # DTB read hits
system.cpu00.itb.read_misses                        0                       # DTB read misses
system.cpu00.itb.write_hits                         0                       # DTB write hits
system.cpu00.itb.write_misses                       0                       # DTB write misses
system.cpu00.itb.flush_tlb                          0                       # Number of times complete TLB was flushed
system.cpu00.itb.flush_tlb_mva                      0                       # Number of times TLB was flushed by MVA
system.cpu00.itb.flush_tlb_mva_asid                 0                       # Number of times TLB was flushed by MVA & ASID
system.cpu00.itb.flush_tlb_asid                     0                       # Number of times TLB was flushed by ASID
system.cpu00.itb.flush_entries                      0                       # Number of entries that have been flushed from TLB
system.cpu00.itb.align_faults                       0                       # Number of TLB faults due to alignment restrictions
system.cpu00.itb.prefetch_faults                    0                       # Number of TLB faults due to prefetch
system.cpu00.itb.domain_faults                      0                       # Number of TLB faults due to domain restrictions
system.cpu00.itb.perms_faults                       0                       # Number of TLB faults due to permissions restrictions
system.cpu00.itb.read_accesses                      0                       # DTB read accesses
system.cpu00.itb.write_accesses                     0                       # DTB write accesses
system.cpu00.itb.inst_accesses                      0                       # ITB inst accesses
system.cpu00.itb.hits                               0                       # DTB hits
system.cpu00.itb.misses                             0                       # DTB misses
system.cpu00.itb.accesses                           0                       # DTB accesses
system.cpu00.workload.num_syscalls                398                       # Number of system calls
system.cpu00.numCycles                         139384                       # number of cpu cycles simulated
system.cpu00.numWorkItemsStarted                    0                       # number of work items this cpu started
system.cpu00.numWorkItemsCompleted                  0                       # number of work items this cpu completed
system.cpu00.fetch.icacheStallCycles            15823                       # Number of cycles fetch is stalled on an Icache miss
system.cpu00.fetch.Insts                        79479                       # Number of instructions fetch has processed
system.cpu00.fetch.Branches                     11446                       # Number of branches that fetch encountered
system.cpu00.fetch.predictedBranches             5758                       # Number of branches that fetch has predicted taken
system.cpu00.fetch.Cycles                       82550                       # Number of cycles fetch has run and was not squashing or blocked
system.cpu00.fetch.SquashCycles                  2887                       # Number of cycles fetch has spent squashing
system.cpu00.fetch.MiscStallCycles                302                       # Number of cycles fetch has spent waiting on interrupts, or bad addresses, or out of MSHRs
system.cpu00.fetch.PendingTrapStallCycles          108                       # Number of stall cycles due to pending traps
system.cpu00.fetch.IcacheWaitRetryStallCycles          435                       # Number of stall cycles due to full MSHR
system.cpu00.fetch.CacheLines                   24265                       # Number of cache lines fetched
system.cpu00.fetch.IcacheSquashes                 358                       # Number of outstanding Icache misses that were squashed
system.cpu00.fetch.rateDist::samples           100661                       # Number of instructions fetched each cycle (Total)
system.cpu00.fetch.rateDist::mean            0.910551                       # Number of instructions fetched each cycle (Total)
system.cpu00.fetch.rateDist::stdev           1.233831                       # Number of instructions fetched each cycle (Total)
system.cpu00.fetch.rateDist::underflows             0      0.00%      0.00% # Number of instructions fetched each cycle (Total)
system.cpu00.fetch.rateDist::0                  58640     58.25%     58.25% # Number of instructions fetched each cycle (Total)
system.cpu00.fetch.rateDist::1                  15269     15.17%     73.42% # Number of instructions fetched each cycle (Total)
system.cpu00.fetch.rateDist::2                   3868      3.84%     77.27% # Number of instructions fetched each cycle (Total)
system.cpu00.fetch.rateDist::3                  22884     22.73%    100.00% # Number of instructions fetched each cycle (Total)
system.cpu00.fetch.rateDist::overflows              0      0.00%    100.00% # Number of instructions fetched each cycle (Total)
system.cpu00.fetch.rateDist::min_value              0                       # Number of instructions fetched each cycle (Total)
system.cpu00.fetch.rateDist::max_value              3                       # Number of instructions fetched each cycle (Total)
system.cpu00.fetch.rateDist::total             100661                       # Number of instructions fetched each cycle (Total)
system.cpu00.fetch.branchRate                0.082118                       # Number of branch fetches per cycle
system.cpu00.fetch.rate                      0.570216                       # Number of inst fetches per cycle
system.cpu00.decode.IdleCycles                  14463                       # Number of cycles decode is idle
system.cpu00.decode.BlockedCycles               47745                       # Number of cycles decode is blocked
system.cpu00.decode.RunCycles                   35676                       # Number of cycles decode is running
system.cpu00.decode.UnblockCycles                1654                       # Number of cycles decode is unblocking
system.cpu00.decode.SquashCycles                 1123                       # Number of cycles decode is squashing
system.cpu00.decode.BranchResolved                968                       # Number of times decode resolved a branch
system.cpu00.decode.BranchMispred                 347                       # Number of times decode detected a branch misprediction
system.cpu00.decode.DecodedInsts                80336                       # Number of instructions handled by decode
system.cpu00.decode.SquashedInsts                4845                       # Number of squashed instructions handled by decode
system.cpu00.rename.SquashCycles                 1123                       # Number of cycles rename is squashing
system.cpu00.rename.IdleCycles                  18549                       # Number of cycles rename is idle
system.cpu00.rename.BlockCycles                  3536                       # Number of cycles rename is blocking
system.cpu00.rename.serializeStallCycles        11352                       # count of cycles rename stalled for serializing inst
system.cpu00.rename.RunCycles                   33207                       # Number of cycles rename is running
system.cpu00.rename.UnblockCycles               32894                       # Number of cycles rename is unblocking
system.cpu00.rename.RenamedInsts                76407                       # Number of instructions processed by rename
system.cpu00.rename.SquashedInsts                1769                       # Number of squashed instructions processed by rename
system.cpu00.rename.ROBFullEvents                  97                       # Number of times rename has blocked due to ROB full
system.cpu00.rename.IQFullEvents                   11                       # Number of times rename has blocked due to IQ full
system.cpu00.rename.LQFullEvents                    1                       # Number of times rename has blocked due to LQ full
system.cpu00.rename.SQFullEvents                32051                       # Number of times rename has blocked due to SQ full
system.cpu00.rename.RenamedOperands             87493                       # Number of destination operands rename has renamed
system.cpu00.rename.RenameLookups              373277                       # Number of register rename lookups that rename has made
system.cpu00.rename.int_rename_lookups         110893                       # Number of integer rename lookups
system.cpu00.rename.fp_rename_lookups              22                       # Number of floating rename lookups
system.cpu00.rename.CommittedMaps               75575                       # Number of HB maps that are committed
system.cpu00.rename.UndoneMaps                  11918                       # Number of HB maps that are undone due to squashing
system.cpu00.rename.serializingInsts              131                       # count of serializing insts renamed
system.cpu00.rename.tempSerializingInsts          129                       # count of temporary serializing insts renamed
system.cpu00.rename.skidInsts                    3888                       # count of insts added to the skid buffer
system.cpu00.memDep0.insertedLoads              11155                       # Number of loads inserted to the mem dependence unit.
system.cpu00.memDep0.insertedStores             11864                       # Number of stores inserted to the mem dependence unit.
system.cpu00.memDep0.conflictingLoads             247                       # Number of conflicting loads.
system.cpu00.memDep0.conflictingStores            113                       # Number of conflicting stores.
system.cpu00.iq.iqInstsAdded                    74445                       # Number of instructions added to the IQ (excludes non-spec)
system.cpu00.iq.iqNonSpecInstsAdded               266                       # Number of non-speculative instructions added to the IQ
system.cpu00.iq.iqInstsIssued                   71262                       # Number of instructions issued
system.cpu00.iq.iqSquashedInstsIssued             450                       # Number of squashed instructions issued
system.cpu00.iq.iqSquashedInstsExamined          9277                       # Number of squashed instructions iterated over during squash; mainly for profiling
system.cpu00.iq.iqSquashedOperandsExamined        23007                       # Number of squashed operands that are examined and possibly removed from graph
system.cpu00.iq.iqSquashedNonSpecRemoved           47                       # Number of squashed non-spec instructions that were removed
system.cpu00.iq.issued_per_cycle::samples       100661                       # Number of insts issued each cycle
system.cpu00.iq.issued_per_cycle::mean       0.707941                       # Number of insts issued each cycle
system.cpu00.iq.issued_per_cycle::stdev      1.092679                       # Number of insts issued each cycle
system.cpu00.iq.issued_per_cycle::underflows            0      0.00%      0.00% # Number of insts issued each cycle
system.cpu00.iq.issued_per_cycle::0             65471     65.04%     65.04% # Number of insts issued each cycle
system.cpu00.iq.issued_per_cycle::1             11745     11.67%     76.71% # Number of insts issued each cycle
system.cpu00.iq.issued_per_cycle::2             11801     11.72%     88.43% # Number of insts issued each cycle
system.cpu00.iq.issued_per_cycle::3             10664     10.59%     99.03% # Number of insts issued each cycle
system.cpu00.iq.issued_per_cycle::4               977      0.97%    100.00% # Number of insts issued each cycle
system.cpu00.iq.issued_per_cycle::5                 3      0.00%    100.00% # Number of insts issued each cycle
system.cpu00.iq.issued_per_cycle::6                 0      0.00%    100.00% # Number of insts issued each cycle
system.cpu00.iq.issued_per_cycle::7                 0      0.00%    100.00% # Number of insts issued each cycle
system.cpu00.iq.issued_per_cycle::8                 0      0.00%    100.00% # Number of insts issued each cycle
system.cpu00.iq.issued_per_cycle::overflows            0      0.00%    100.00% # Number of insts issued each cycle
system.cpu00.iq.issued_per_cycle::min_value            0                       # Number of insts issued each cycle
system.cpu00.iq.issued_per_cycle::max_value            5                       # Number of insts issued each cycle
system.cpu00.iq.issued_per_cycle::total        100661                       # Number of insts issued each cycle
system.cpu00.iq.fu_full::No_OpClass                 0      0.00%      0.00% # attempts to use FU when none available
system.cpu00.iq.fu_full::IntAlu                  2990     24.35%     24.35% # attempts to use FU when none available
system.cpu00.iq.fu_full::IntMult                   90      0.73%     25.09% # attempts to use FU when none available
system.cpu00.iq.fu_full::IntDiv                     0      0.00%     25.09% # attempts to use FU when none available
system.cpu00.iq.fu_full::FloatAdd                   0      0.00%     25.09% # attempts to use FU when none available
system.cpu00.iq.fu_full::FloatCmp                   0      0.00%     25.09% # attempts to use FU when none available
system.cpu00.iq.fu_full::FloatCvt                   0      0.00%     25.09% # attempts to use FU when none available
system.cpu00.iq.fu_full::FloatMult                  0      0.00%     25.09% # attempts to use FU when none available
system.cpu00.iq.fu_full::FloatDiv                   0      0.00%     25.09% # attempts to use FU when none available
system.cpu00.iq.fu_full::FloatSqrt                  0      0.00%     25.09% # attempts to use FU when none available
system.cpu00.iq.fu_full::SimdAdd                    0      0.00%     25.09% # attempts to use FU when none available
system.cpu00.iq.fu_full::SimdAddAcc                 0      0.00%     25.09% # attempts to use FU when none available
system.cpu00.iq.fu_full::SimdAlu                    0      0.00%     25.09% # attempts to use FU when none available
system.cpu00.iq.fu_full::SimdCmp                    0      0.00%     25.09% # attempts to use FU when none available
system.cpu00.iq.fu_full::SimdCvt                    0      0.00%     25.09% # attempts to use FU when none available
system.cpu00.iq.fu_full::SimdMisc                   0      0.00%     25.09% # attempts to use FU when none available
system.cpu00.iq.fu_full::SimdMult                   0      0.00%     25.09% # attempts to use FU when none available
system.cpu00.iq.fu_full::SimdMultAcc                0      0.00%     25.09% # attempts to use FU when none available
system.cpu00.iq.fu_full::SimdShift                  0      0.00%     25.09% # attempts to use FU when none available
system.cpu00.iq.fu_full::SimdShiftAcc               0      0.00%     25.09% # attempts to use FU when none available
system.cpu00.iq.fu_full::SimdSqrt                   0      0.00%     25.09% # attempts to use FU when none available
system.cpu00.iq.fu_full::SimdFloatAdd               0      0.00%     25.09% # attempts to use FU when none available
system.cpu00.iq.fu_full::SimdFloatAlu               0      0.00%     25.09% # attempts to use FU when none available
system.cpu00.iq.fu_full::SimdFloatCmp               0      0.00%     25.09% # attempts to use FU when none available
system.cpu00.iq.fu_full::SimdFloatCvt               0      0.00%     25.09% # attempts to use FU when none available
system.cpu00.iq.fu_full::SimdFloatDiv               0      0.00%     25.09% # attempts to use FU when none available
system.cpu00.iq.fu_full::SimdFloatMisc              0      0.00%     25.09% # attempts to use FU when none available
system.cpu00.iq.fu_full::SimdFloatMult              0      0.00%     25.09% # attempts to use FU when none available
system.cpu00.iq.fu_full::SimdFloatMultAcc            0      0.00%     25.09% # attempts to use FU when none available
system.cpu00.iq.fu_full::SimdFloatSqrt              0      0.00%     25.09% # attempts to use FU when none available
system.cpu00.iq.fu_full::MemRead                 4087     33.29%     58.38% # attempts to use FU when none available
system.cpu00.iq.fu_full::MemWrite                5110     41.62%    100.00% # attempts to use FU when none available
system.cpu00.iq.fu_full::IprAccess                  0      0.00%    100.00% # attempts to use FU when none available
system.cpu00.iq.fu_full::InstPrefetch               0      0.00%    100.00% # attempts to use FU when none available
system.cpu00.iq.FU_type_0::No_OpClass               0      0.00%      0.00% # Type of FU issued
system.cpu00.iq.FU_type_0::IntAlu               44075     61.85%     61.85% # Type of FU issued
system.cpu00.iq.FU_type_0::IntMult               5094      7.15%     69.00% # Type of FU issued
system.cpu00.iq.FU_type_0::IntDiv                   0      0.00%     69.00% # Type of FU issued
system.cpu00.iq.FU_type_0::FloatAdd                 0      0.00%     69.00% # Type of FU issued
system.cpu00.iq.FU_type_0::FloatCmp                 0      0.00%     69.00% # Type of FU issued
system.cpu00.iq.FU_type_0::FloatCvt                 0      0.00%     69.00% # Type of FU issued
system.cpu00.iq.FU_type_0::FloatMult                0      0.00%     69.00% # Type of FU issued
system.cpu00.iq.FU_type_0::FloatDiv                 0      0.00%     69.00% # Type of FU issued
[...]
system.cpu15.iq.FU_type_0::FloatCvt                 0      0.00%     78.67% # Type of FU issued
system.cpu15.iq.FU_type_0::FloatMult                0      0.00%     78.67% # Type of FU issued
system.cpu15.iq.FU_type_0::FloatDiv                 0      0.00%     78.67% # Type of FU issued
system.cpu15.iq.FU_type_0::FloatSqrt                0      0.00%     78.67% # Type of FU issued
system.cpu15.iq.FU_type_0::SimdAdd                  0      0.00%     78.67% # Type of FU issued
system.cpu15.iq.FU_type_0::SimdAddAcc               0      0.00%     78.67% # Type of FU issued
system.cpu15.iq.FU_type_0::SimdAlu                  0      0.00%     78.67% # Type of FU issued
system.cpu15.iq.FU_type_0::SimdCmp                  0      0.00%     78.67% # Type of FU issued
system.cpu15.iq.FU_type_0::SimdCvt                  0      0.00%     78.67% # Type of FU issued
system.cpu15.iq.FU_type_0::SimdMisc                 0      0.00%     78.67% # Type of FU issued
system.cpu15.iq.FU_type_0::SimdMult                 0      0.00%     78.67% # Type of FU issued
system.cpu15.iq.FU_type_0::SimdMultAcc              0      0.00%     78.67% # Type of FU issued
system.cpu15.iq.FU_type_0::SimdShift                0      0.00%     78.67% # Type of FU issued
system.cpu15.iq.FU_type_0::SimdShiftAcc             0      0.00%     78.67% # Type of FU issued
system.cpu15.iq.FU_type_0::SimdSqrt                 0      0.00%     78.67% # Type of FU issued
system.cpu15.iq.FU_type_0::SimdFloatAdd             0      0.00%     78.67% # Type of FU issued
system.cpu15.iq.FU_type_0::SimdFloatAlu             0      0.00%     78.67% # Type of FU issued
system.cpu15.iq.FU_type_0::SimdFloatCmp             0      0.00%     78.67% # Type of FU issued
system.cpu15.iq.FU_type_0::SimdFloatCvt             0      0.00%     78.67% # Type of FU issued
system.cpu15.iq.FU_type_0::SimdFloatDiv             0      0.00%     78.67% # Type of FU issued
system.cpu15.iq.FU_type_0::SimdFloatMisc            0      0.00%     78.67% # Type of FU issued
system.cpu15.iq.FU_type_0::SimdFloatMult            0      0.00%     78.67% # Type of FU issued
system.cpu15.iq.FU_type_0::SimdFloatMultAcc            0      0.00%     78.67% # Type of FU issued
system.cpu15.iq.FU_type_0::SimdFloatSqrt            0      0.00%     78.67% # Type of FU issued
system.cpu15.iq.FU_type_0::MemRead               5513     19.06%     97.73% # Type of FU issued
system.cpu15.iq.FU_type_0::MemWrite               656      2.27%    100.00% # Type of FU issued
system.cpu15.iq.FU_type_0::IprAccess                0      0.00%    100.00% # Type of FU issued
system.cpu15.iq.FU_type_0::InstPrefetch             0      0.00%    100.00% # Type of FU issued
system.cpu15.iq.FU_type_0::total                28918                       # Type of FU issued
system.cpu15.iq.rate                         1.170106                       # Inst issue rate
system.cpu15.iq.fu_busy_cnt                      5005                       # FU busy when requested
system.cpu15.iq.fu_busy_rate                 0.173076                       # FU busy rate (busy events/executed inst)
system.cpu15.iq.int_inst_queue_reads            83092                       # Number of integer instruction queue reads
system.cpu15.iq.int_inst_queue_writes           31054                       # Number of integer instruction queue writes
system.cpu15.iq.int_inst_queue_wakeup_accesses        28424                       # Number of integer instruction queue wakeup accesses
system.cpu15.iq.fp_inst_queue_reads                 0                       # Number of floating instruction queue reads
system.cpu15.iq.fp_inst_queue_writes                0                       # Number of floating instruction queue writes
system.cpu15.iq.fp_inst_queue_wakeup_accesses            0                       # Number of floating instruction queue wakeup accesses
system.cpu15.iq.int_alu_accesses                33923                       # Number of integer alu accesses
system.cpu15.iq.fp_alu_accesses                     0                       # Number of floating point alu accesses
system.cpu15.iew.lsq.thread0.forwLoads              1                       # Number of loads that had data forwarded from stores
system.cpu15.iew.lsq.thread0.invAddrLoads            0                       # Number of loads ignored due to an invalid address
system.cpu15.iew.lsq.thread0.squashedLoads          437                       # Number of loads squashed
system.cpu15.iew.lsq.thread0.ignoredResponses            0                       # Number of memory responses ignored because the instruction is squashed
system.cpu15.iew.lsq.thread0.memOrderViolation            3                       # Number of memory ordering violations
system.cpu15.iew.lsq.thread0.squashedStores          227                       # Number of stores squashed
system.cpu15.iew.lsq.thread0.invAddrSwpfs            0                       # Number of software prefetches ignored due to an invalid address
system.cpu15.iew.lsq.thread0.blockedLoads            0                       # Number of blocked loads due to partial load-store forwarding
system.cpu15.iew.lsq.thread0.rescheduledLoads           21                       # Number of loads that were rescheduled
system.cpu15.iew.lsq.thread0.cacheBlocked            0                       # Number of times an access to memory failed due to the cache being blocked
system.cpu15.iew.iewIdleCycles                      0                       # Number of cycles IEW is idle
system.cpu15.iew.iewSquashCycles                  186                       # Number of cycles IEW is squashing
system.cpu15.iew.iewBlockCycles                    76                       # Number of cycles IEW is blocking
system.cpu15.iew.iewUnblockCycles                   2                       # Number of cycles IEW is unblocking
system.cpu15.iew.iewDispatchedInsts             29437                       # Number of instructions dispatched to IQ
system.cpu15.iew.iewDispSquashedInsts               0                       # Number of squashed instructions skipped by dispatch
system.cpu15.iew.iewDispLoadInsts                5561                       # Number of dispatched load instructions
system.cpu15.iew.iewDispStoreInsts                757                       # Number of dispatched store instructions
system.cpu15.iew.iewDispNonSpecInsts               32                       # Number of dispatched non-speculative instructions
system.cpu15.iew.iewIQFullEvents                    2                       # Number of times the IQ has become full, causing a stall
system.cpu15.iew.iewLSQFullEvents                   0                       # Number of times the LSQ has become full, causing a stall
system.cpu15.iew.memOrderViolationEvents            3                       # Number of memory order violations
system.cpu15.iew.predictedTakenIncorrect           45                       # Number of branches that were predicted taken incorrectly
system.cpu15.iew.predictedNotTakenIncorrect          119                       # Number of branches that were predicted not taken incorrectly
system.cpu15.iew.branchMispredicts                164                       # Number of branch mispredicts detected at execute
system.cpu15.iew.iewExecutedInsts               28607                       # Number of executed instructions
system.cpu15.iew.iewExecLoadInsts                5383                       # Number of load instructions executed
system.cpu15.iew.iewExecSquashedInsts             309                       # Number of squashed instructions skipped in execute
system.cpu15.iew.exec_swp                           0                       # number of swp insts executed
system.cpu15.iew.exec_nop                           2                       # number of nop insts executed
system.cpu15.iew.exec_refs                       5997                       # number of memory reference insts executed
system.cpu15.iew.exec_branches                   4993                       # Number of branches executed
system.cpu15.iew.exec_stores                      614                       # Number of stores executed
system.cpu15.iew.exec_rate                   1.157522                       # Inst execution rate
system.cpu15.iew.wb_sent                        28470                       # cumulative count of insts sent to commit
system.cpu15.iew.wb_count                       28424                       # cumulative count of insts written-back
system.cpu15.iew.wb_producers                   19891                       # num instructions producing a value
system.cpu15.iew.wb_consumers                   31114                       # num instructions consuming a value
system.cpu15.iew.wb_penalized                       0                       # number of instrctions required to write to 'other' IQ
system.cpu15.iew.wb_rate                     1.150117                       # insts written-back per cycle
system.cpu15.iew.wb_fanout                   0.639294                       # average fanout of values written-back
system.cpu15.iew.wb_penalized_rate                  0                       # fraction of instructions written-back that wrote to 'other' IQ
system.cpu15.commit.commitSquashedInsts          1287                       # The number of squashed insts skipped by commit
system.cpu15.commit.commitNonSpecStalls            62                       # The number of times commit has been forced to stall to communicate backwards
system.cpu15.commit.branchMispredicts             162                       # The number of times a branch was mispredicted
system.cpu15.commit.committed_per_cycle::samples        19918                       # Number of insts commited each cycle
system.cpu15.commit.committed_per_cycle::mean     1.396676                       # Number of insts commited each cycle
system.cpu15.commit.committed_per_cycle::stdev     1.987798                       # Number of insts commited each cycle
system.cpu15.commit.committed_per_cycle::underflows            0      0.00%      0.00% # Number of insts commited each cycle
system.cpu15.commit.committed_per_cycle::0         8057     40.45%     40.45% # Number of insts commited each cycle
system.cpu15.commit.committed_per_cycle::1         7560     37.96%     78.41% # Number of insts commited each cycle
system.cpu15.commit.committed_per_cycle::2          823      4.13%     82.54% # Number of insts commited each cycle
system.cpu15.commit.committed_per_cycle::3          378      1.90%     84.44% # Number of insts commited each cycle
system.cpu15.commit.committed_per_cycle::4          179      0.90%     85.33% # Number of insts commited each cycle
system.cpu15.commit.committed_per_cycle::5         2022     10.15%     95.49% # Number of insts commited each cycle
system.cpu15.commit.committed_per_cycle::6          217      1.09%     96.58% # Number of insts commited each cycle
system.cpu15.commit.committed_per_cycle::7          105      0.53%     97.10% # Number of insts commited each cycle
system.cpu15.commit.committed_per_cycle::8          577      2.90%    100.00% # Number of insts commited each cycle
system.cpu15.commit.committed_per_cycle::overflows            0      0.00%    100.00% # Number of insts commited each cycle
system.cpu15.commit.committed_per_cycle::min_value            0                       # Number of insts commited each cycle
system.cpu15.commit.committed_per_cycle::max_value            8                       # Number of insts commited each cycle
system.cpu15.commit.committed_per_cycle::total        19918                       # Number of insts commited each cycle
system.cpu15.commit.committedInsts              27117                       # Number of instructions committed
system.cpu15.commit.committedOps                27819                       # Number of ops (including micro ops) committed
system.cpu15.commit.swp_count                       0                       # Number of s/w prefetches committed
system.cpu15.commit.refs                         5654                       # Number of memory references committed
system.cpu15.commit.loads                        5124                       # Number of loads committed
system.cpu15.commit.membars                        30                       # Number of memory barriers committed
system.cpu15.commit.branches                     4923                       # Number of branches committed
system.cpu15.commit.fp_insts                        0                       # Number of committed floating point instructions.
system.cpu15.commit.int_insts                   23014                       # Number of committed integer instructions.
system.cpu15.commit.function_calls                 74                       # Number of function calls committed.
system.cpu15.commit.op_class_0::No_OpClass            0      0.00%      0.00% # Class of committed instruction
system.cpu15.commit.op_class_0::IntAlu          20287     72.92%     72.92% # Class of committed instruction
system.cpu15.commit.op_class_0::IntMult          1878      6.75%     79.68% # Class of committed instruction
system.cpu15.commit.op_class_0::IntDiv              0      0.00%     79.68% # Class of committed instruction
system.cpu15.commit.op_class_0::FloatAdd            0      0.00%     79.68% # Class of committed instruction
system.cpu15.commit.op_class_0::FloatCmp            0      0.00%     79.68% # Class of committed instruction
system.cpu15.commit.op_class_0::FloatCvt            0      0.00%     79.68% # Class of committed instruction
system.cpu15.commit.op_class_0::FloatMult            0      0.00%     79.68% # Class of committed instruction
system.cpu15.commit.op_class_0::FloatDiv            0      0.00%     79.68% # Class of committed instruction
system.cpu15.commit.op_class_0::FloatSqrt            0      0.00%     79.68% # Class of committed instruction
system.cpu15.commit.op_class_0::SimdAdd             0      0.00%     79.68% # Class of committed instruction
system.cpu15.commit.op_class_0::SimdAddAcc            0      0.00%     79.68% # Class of committed instruction
system.cpu15.commit.op_class_0::SimdAlu             0      0.00%     79.68% # Class of committed instruction
system.cpu15.commit.op_class_0::SimdCmp             0      0.00%     79.68% # Class of committed instruction
system.cpu15.commit.op_class_0::SimdCvt             0      0.00%     79.68% # Class of committed instruction
system.cpu15.commit.op_class_0::SimdMisc            0      0.00%     79.68% # Class of committed instruction
system.cpu15.commit.op_class_0::SimdMult            0      0.00%     79.68% # Class of committed instruction
system.cpu15.commit.op_class_0::SimdMultAcc            0      0.00%     79.68% # Class of committed instruction
system.cpu15.commit.op_class_0::SimdShift            0      0.00%     79.68% # Class of committed instruction
system.cpu15.commit.op_class_0::SimdShiftAcc            0      0.00%     79.68% # Class of committed instruction
system.cpu15.commit.op_class_0::SimdSqrt            0      0.00%     79.68% # Class of committed instruction
system.cpu15.commit.op_class_0::SimdFloatAdd            0      0.00%     79.68% # Class of committed instruction
system.cpu15.commit.op_class_0::SimdFloatAlu            0      0.00%     79.68% # Class of committed instruction
system.cpu15.commit.op_class_0::SimdFloatCmp            0      0.00%     79.68% # Class of committed instruction
system.cpu15.commit.op_class_0::SimdFloatCvt            0      0.00%     79.68% # Class of committed instruction
system.cpu15.commit.op_class_0::SimdFloatDiv            0      0.00%     79.68% # Class of committed instruction
system.cpu15.commit.op_class_0::SimdFloatMisc            0      0.00%     79.68% # Class of committed instruction
system.cpu15.commit.op_class_0::SimdFloatMult            0      0.00%     79.68% # Class of committed instruction
system.cpu15.commit.op_class_0::SimdFloatMultAcc            0      0.00%     79.68% # Class of committed instruction
system.cpu15.commit.op_class_0::SimdFloatSqrt            0      0.00%     79.68% # Class of committed instruction
system.cpu15.commit.op_class_0::MemRead          5124     18.42%     98.09% # Class of committed instruction
system.cpu15.commit.op_class_0::MemWrite          530      1.91%    100.00% # Class of committed instruction
system.cpu15.commit.op_class_0::IprAccess            0      0.00%    100.00% # Class of committed instruction
system.cpu15.commit.op_class_0::InstPrefetch            0      0.00%    100.00% # Class of committed instruction
system.cpu15.commit.op_class_0::total           27819                       # Class of committed instruction
system.cpu15.commit.bw_lim_events                 577                       # number cycles where commit BW limit reached
system.cpu15.rob.rob_reads                      48174                       # The number of ROB reads
system.cpu15.rob.rob_writes                     58499                       # The number of ROB writes
system.cpu15.timesIdled                            48                       # Number of times that the entire CPU went into an idle state and unscheduled itself
system.cpu15.idleCycles                          4535                       # Total number of cycles that the CPU has spent unscheduled due to idling
system.cpu15.quiesceCycles                     114669                       # Total number of cycles that CPU has spent quiesced or waiting for an interrupt
system.cpu15.committedInsts                     27117                       # Number of Instructions Simulated
system.cpu15.committedOps                       27819                       # Number of Ops (including micro ops) Simulated
system.cpu15.cpi                             0.911384                       # CPI: Cycles Per Instruction
system.cpu15.cpi_total                       0.911384                       # CPI: Total CPI of All Threads
system.cpu15.ipc                             1.097232                       # IPC: Instructions Per Cycle
system.cpu15.ipc_total                       1.097232                       # IPC: Total IPC of All Threads
system.cpu15.int_regfile_reads                  41097                       # number of integer regfile reads
system.cpu15.int_regfile_writes                 17085                       # number of integer regfile writes
system.cpu15.fp_regfile_writes                    160                       # number of floating regfile writes
system.cpu15.cc_regfile_reads                  101580                       # number of cc regfile reads
system.cpu15.cc_regfile_writes                  28526                       # number of cc regfile writes
system.cpu15.misc_regfile_reads                  7004                       # number of misc regfile reads
system.cpu15.misc_regfile_writes                   50                       # number of misc regfile writes
system.cpu15.dcache.tags.replacements               0                       # number of replacements
system.cpu15.dcache.tags.tagsinuse          14.289929                       # Cycle average of tags in use
system.cpu15.dcache.tags.total_refs              5611                       # Total number of references to valid blocks.
system.cpu15.dcache.tags.sampled_refs             111                       # Sample count of references to valid blocks.
system.cpu15.dcache.tags.avg_refs           50.549550                       # Average number of references to valid blocks.
system.cpu15.dcache.tags.warmup_cycle               0                       # Cycle when the warmup percentage was hit.
system.cpu15.dcache.tags.occ_blocks::cpu15.data    14.289929                       # Average occupied blocks per requestor
system.cpu15.dcache.tags.occ_percent::cpu15.data     0.013955                       # Average percentage of cache occupancy
system.cpu15.dcache.tags.occ_percent::total     0.013955                       # Average percentage of cache occupancy
