
---------- Begin Simulation Statistics ----------
sim_seconds                                  0.000071                       # Number of seconds simulated
sim_ticks                                    70850500                       # Number of ticks simulated
final_tick                                   70850500                       # Number of ticks from beginning of simulation (restored from checkpoints and never reset)
sim_freq                                 1000000000000                       # Frequency of simulated ticks
host_inst_rate                                  91269                       # Simulator instruction rate (inst/s)
host_op_rate                                    94233                       # Simulator op (including micro ops) rate (op/s)
host_tick_rate                               15738406                       # Simulator tick rate (ticks/s)
host_mem_usage                                 676884                       # Number of bytes of host memory used
host_seconds                                     4.50                       # Real time elapsed on the host
sim_insts                                      410817                       # Number of instructions simulated
sim_ops                                        424207                       # Number of ops (including micro ops) simulated
system.voltage_domain.voltage                       1                       # Voltage in Volts
system.clk_domain.clock                          1000                       # Clock period in ticks
system.mem_ctrls.bytes_read::cpu0.inst          39488                       # Number of bytes read from this memory
system.mem_ctrls.bytes_read::cpu0.data          35392                       # Number of bytes read from this memory
system.mem_ctrls.bytes_read::cpu1.inst           3520                       # Number of bytes read from this memory
system.mem_ctrls.bytes_read::cpu1.data           1152                       # Number of bytes read from this memory
system.mem_ctrls.bytes_read::cpu2.inst           3456                       # Number of bytes read from this memory
system.mem_ctrls.bytes_read::cpu2.data           1152                       # Number of bytes read from this memory
system.mem_ctrls.bytes_read::cpu3.inst           3456                       # Number of bytes read from this memory
system.mem_ctrls.bytes_read::cpu3.data           1152                       # Number of bytes read from this memory
system.mem_ctrls.bytes_read::cpu4.inst           3648                       # Number of bytes read from this memory
system.mem_ctrls.bytes_read::cpu4.data           1152                       # Number of bytes read from this memory
system.mem_ctrls.bytes_read::cpu5.inst           3648                       # Number of bytes read from this memory
system.mem_ctrls.bytes_read::cpu5.data           1216                       # Number of bytes read from this memory
system.mem_ctrls.bytes_read::cpu6.inst           3584                       # Number of bytes read from this memory
system.mem_ctrls.bytes_read::cpu6.data           1152                       # Number of bytes read from this memory
system.mem_ctrls.bytes_read::cpu7.inst           3584                       # Number of bytes read from this memory
system.mem_ctrls.bytes_read::cpu7.data           1216                       # Number of bytes read from this memory
system.mem_ctrls.bytes_read::total             107968                       # Number of bytes read from this memory
system.mem_ctrls.bytes_inst_read::cpu0.inst        39488                       # Number of instructions bytes read from this memory
system.mem_ctrls.bytes_inst_read::cpu1.inst         3520                       # Number of instructions bytes read from this memory
system.mem_ctrls.bytes_inst_read::cpu2.inst         3456                       # Number of instructions bytes read from this memory
system.mem_ctrls.bytes_inst_read::cpu3.inst         3456                       # Number of instructions bytes read from this memory
system.mem_ctrls.bytes_inst_read::cpu4.inst         3648                       # Number of instructions bytes read from this memory
system.mem_ctrls.bytes_inst_read::cpu5.inst         3648                       # Number of instructions bytes read from this memory
system.mem_ctrls.bytes_inst_read::cpu6.inst         3584                       # Number of instructions bytes read from this memory
system.mem_ctrls.bytes_inst_read::cpu7.inst         3584                       # Number of instructions bytes read from this memory
system.mem_ctrls.bytes_inst_read::total         64384                       # Number of instructions bytes read from this memory
system.mem_ctrls.bytes_written::writebacks         1152                       # Number of bytes written to this memory
system.mem_ctrls.bytes_written::total            1152                       # Number of bytes written to this memory
system.mem_ctrls.num_reads::cpu0.inst             617                       # Number of read requests responded to by this memory
system.mem_ctrls.num_reads::cpu0.data             553                       # Number of read requests responded to by this memory
system.mem_ctrls.num_reads::cpu1.inst              55                       # Number of read requests responded to by this memory
system.mem_ctrls.num_reads::cpu1.data              18                       # Number of read requests responded to by this memory
system.mem_ctrls.num_reads::cpu2.inst              54                       # Number of read requests responded to by this memory
system.mem_ctrls.num_reads::cpu2.data              18                       # Number of read requests responded to by this memory
system.mem_ctrls.num_reads::cpu3.inst              54                       # Number of read requests responded to by this memory
system.mem_ctrls.num_reads::cpu3.data              18                       # Number of read requests responded to by this memory
system.mem_ctrls.num_reads::cpu4.inst              57                       # Number of read requests responded to by this memory
system.mem_ctrls.num_reads::cpu4.data              18                       # Number of read requests responded to by this memory
system.mem_ctrls.num_reads::cpu5.inst              57                       # Number of read requests responded to by this memory
system.mem_ctrls.num_reads::cpu5.data              19                       # Number of read requests responded to by this memory
system.mem_ctrls.num_reads::cpu6.inst              56                       # Number of read requests responded to by this memory
system.mem_ctrls.num_reads::cpu6.data              18                       # Number of read requests responded to by this memory
system.mem_ctrls.num_reads::cpu7.inst              56                       # Number of read requests responded to by this memory
system.mem_ctrls.num_reads::cpu7.data              19                       # Number of read requests responded to by this memory
system.mem_ctrls.num_reads::total                1687                       # Number of read requests responded to by this memory
system.mem_ctrls.num_writes::writebacks            18                       # Number of write requests responded to by this memory
system.mem_ctrls.num_writes::total                 18                       # Number of write requests responded to by this memory
system.mem_ctrls.bw_read::cpu0.inst         557342573                       # Total read bandwidth from this memory (bytes/s)
system.mem_ctrls.bw_read::cpu0.data         499530702                       # Total read bandwidth from this memory (bytes/s)
system.mem_ctrls.bw_read::cpu1.inst          49682077                       # Total read bandwidth from this memory (bytes/s)
system.mem_ctrls.bw_read::cpu1.data          16259589                       # Total read bandwidth from this memory (bytes/s)
system.mem_ctrls.bw_read::cpu2.inst          48778767                       # Total read bandwidth from this memory (bytes/s)
system.mem_ctrls.bw_read::cpu2.data          16259589                       # Total read bandwidth from this memory (bytes/s)
system.mem_ctrls.bw_read::cpu3.inst          48778767                       # Total read bandwidth from this memory (bytes/s)
system.mem_ctrls.bw_read::cpu3.data          16259589                       # Total read bandwidth from this memory (bytes/s)
system.mem_ctrls.bw_read::cpu4.inst          51488698                       # Total read bandwidth from this memory (bytes/s)
system.mem_ctrls.bw_read::cpu4.data          16259589                       # Total read bandwidth from this memory (bytes/s)
system.mem_ctrls.bw_read::cpu5.inst          51488698                       # Total read bandwidth from this memory (bytes/s)
system.mem_ctrls.bw_read::cpu5.data          17162899                       # Total read bandwidth from this memory (bytes/s)
system.mem_ctrls.bw_read::cpu6.inst          50585388                       # Total read bandwidth from this memory (bytes/s)
system.mem_ctrls.bw_read::cpu6.data          16259589                       # Total read bandwidth from this memory (bytes/s)
system.mem_ctrls.bw_read::cpu7.inst          50585388                       # Total read bandwidth from this memory (bytes/s)
system.mem_ctrls.bw_read::cpu7.data          17162899                       # Total read bandwidth from this memory (bytes/s)
system.mem_ctrls.bw_read::total            1523884800                       # Total read bandwidth from this memory (bytes/s)
system.mem_ctrls.bw_inst_read::cpu0.inst    557342573                       # Instruction read bandwidth from this memory (bytes/s)
system.mem_ctrls.bw_inst_read::cpu1.inst     49682077                       # Instruction read bandwidth from this memory (bytes/s)
system.mem_ctrls.bw_inst_read::cpu2.inst     48778767                       # Instruction read bandwidth from this memory (bytes/s)
system.mem_ctrls.bw_inst_read::cpu3.inst     48778767                       # Instruction read bandwidth from this memory (bytes/s)
system.mem_ctrls.bw_inst_read::cpu4.inst     51488698                       # Instruction read bandwidth from this memory (bytes/s)
system.mem_ctrls.bw_inst_read::cpu5.inst     51488698                       # Instruction read bandwidth from this memory (bytes/s)
system.mem_ctrls.bw_inst_read::cpu6.inst     50585388                       # Instruction read bandwidth from this memory (bytes/s)
system.mem_ctrls.bw_inst_read::cpu7.inst     50585388                       # Instruction read bandwidth from this memory (bytes/s)
system.mem_ctrls.bw_inst_read::total        908730355                       # Instruction read bandwidth from this memory (bytes/s)
system.mem_ctrls.bw_write::writebacks        16259589                       # Write bandwidth from this memory (bytes/s)
system.mem_ctrls.bw_write::total             16259589                       # Write bandwidth from this memory (bytes/s)
system.mem_ctrls.bw_total::writebacks        16259589                       # Total bandwidth to/from this memory (bytes/s)
system.mem_ctrls.bw_total::cpu0.inst        557342573                       # Total bandwidth to/from this memory (bytes/s)
system.mem_ctrls.bw_total::cpu0.data        499530702                       # Total bandwidth to/from this memory (bytes/s)
system.mem_ctrls.bw_total::cpu1.inst         49682077                       # Total bandwidth to/from this memory (bytes/s)
system.mem_ctrls.bw_total::cpu1.data         16259589                       # Total bandwidth to/from this memory (bytes/s)
system.mem_ctrls.bw_total::cpu2.inst         48778767                       # Total bandwidth to/from this memory (bytes/s)
system.mem_ctrls.bw_total::cpu2.data         16259589                       # Total bandwidth to/from this memory (bytes/s)
system.mem_ctrls.bw_total::cpu3.inst         48778767                       # Total bandwidth to/from this memory (bytes/s)
system.mem_ctrls.bw_total::cpu3.data         16259589                       # Total bandwidth to/from this memory (bytes/s)
system.mem_ctrls.bw_total::cpu4.inst         51488698                       # Total bandwidth to/from this memory (bytes/s)
system.mem_ctrls.bw_total::cpu4.data         16259589                       # Total bandwidth to/from this memory (bytes/s)
system.mem_ctrls.bw_total::cpu5.inst         51488698                       # Total bandwidth to/from this memory (bytes/s)
system.mem_ctrls.bw_total::cpu5.data         17162899                       # Total bandwidth to/from this memory (bytes/s)
system.mem_ctrls.bw_total::cpu6.inst         50585388                       # Total bandwidth to/from this memory (bytes/s)
system.mem_ctrls.bw_total::cpu6.data         16259589                       # Total bandwidth to/from this memory (bytes/s)
system.mem_ctrls.bw_total::cpu7.inst         50585388                       # Total bandwidth to/from this memory (bytes/s)
system.mem_ctrls.bw_total::cpu7.data         17162899                       # Total bandwidth to/from this memory (bytes/s)
system.mem_ctrls.bw_total::total           1540144389                       # Total bandwidth to/from this memory (bytes/s)
system.mem_ctrls.readReqs                        1688                       # Number of read requests accepted
system.mem_ctrls.writeReqs                         18                       # Number of write requests accepted
system.mem_ctrls.readBursts                      1688                       # Number of DRAM read bursts, including those serviced by the write queue
system.mem_ctrls.writeBursts                       18                       # Number of DRAM write bursts, including those merged in the write queue
system.mem_ctrls.bytesReadDRAM                 106176                       # Total number of bytes read from DRAM
system.mem_ctrls.bytesReadWrQ                    1856                       # Total number of bytes read from write queue
system.mem_ctrls.bytesWritten                       0                       # Total number of bytes written to DRAM
system.mem_ctrls.bytesReadSys                  108032                       # Total read bytes from the system interface side
system.mem_ctrls.bytesWrittenSys                 1152                       # Total written bytes from the system interface side
system.mem_ctrls.servicedByWrQ                     29                       # Number of DRAM read bursts serviced by the write queue
system.mem_ctrls.mergedWrBursts                     2                       # Number of DRAM write bursts merged with an existing one
system.mem_ctrls.neitherReadNorWriteReqs            7                       # Number of requests that are neither read nor write
system.mem_ctrls.perBankRdBursts::0               211                       # Per bank write bursts
system.mem_ctrls.perBankRdBursts::1               385                       # Per bank write bursts
system.mem_ctrls.perBankRdBursts::2               220                       # Per bank write bursts
system.mem_ctrls.perBankRdBursts::3               247                       # Per bank write bursts
system.mem_ctrls.perBankRdBursts::4               175                       # Per bank write bursts
system.mem_ctrls.perBankRdBursts::5                74                       # Per bank write bursts
system.mem_ctrls.perBankRdBursts::6               117                       # Per bank write bursts
system.mem_ctrls.perBankRdBursts::7                33                       # Per bank write bursts
system.mem_ctrls.perBankRdBursts::8                16                       # Per bank write bursts
system.mem_ctrls.perBankRdBursts::9                 8                       # Per bank write bursts
system.mem_ctrls.perBankRdBursts::10                0                       # Per bank write bursts
system.mem_ctrls.perBankRdBursts::11               15                       # Per bank write bursts
system.mem_ctrls.perBankRdBursts::12                8                       # Per bank write bursts
system.mem_ctrls.perBankRdBursts::13               40                       # Per bank write bursts
system.mem_ctrls.perBankRdBursts::14               39                       # Per bank write bursts
system.mem_ctrls.perBankRdBursts::15               71                       # Per bank write bursts
system.mem_ctrls.perBankWrBursts::0                 0                       # Per bank write bursts
system.mem_ctrls.perBankWrBursts::1                 0                       # Per bank write bursts
system.mem_ctrls.perBankWrBursts::2                 0                       # Per bank write bursts
system.mem_ctrls.perBankWrBursts::3                 0                       # Per bank write bursts
system.mem_ctrls.perBankWrBursts::4                 0                       # Per bank write bursts
system.mem_ctrls.perBankWrBursts::5                 0                       # Per bank write bursts
system.mem_ctrls.perBankWrBursts::6                 0                       # Per bank write bursts
system.mem_ctrls.perBankWrBursts::7                 0                       # Per bank write bursts
system.mem_ctrls.perBankWrBursts::8                 0                       # Per bank write bursts
system.mem_ctrls.perBankWrBursts::9                 0                       # Per bank write bursts
system.mem_ctrls.perBankWrBursts::10                0                       # Per bank write bursts
system.mem_ctrls.perBankWrBursts::11                0                       # Per bank write bursts
system.mem_ctrls.perBankWrBursts::12                0                       # Per bank write bursts
system.mem_ctrls.perBankWrBursts::13                0                       # Per bank write bursts
system.mem_ctrls.perBankWrBursts::14                0                       # Per bank write bursts
system.mem_ctrls.perBankWrBursts::15                0                       # Per bank write bursts
system.mem_ctrls.numRdRetry                         0                       # Number of times read queue was full causing retry
system.mem_ctrls.numWrRetry                         0                       # Number of times write queue was full causing retry
system.mem_ctrls.totGap                      70848000                       # Total gap between requests
system.mem_ctrls.readPktSize::0                     0                       # Read request sizes (log2)
system.mem_ctrls.readPktSize::1                     0                       # Read request sizes (log2)
system.mem_ctrls.readPktSize::2                     0                       # Read request sizes (log2)
system.mem_ctrls.readPktSize::3                     0                       # Read request sizes (log2)
system.mem_ctrls.readPktSize::4                     0                       # Read request sizes (log2)
system.mem_ctrls.readPktSize::5                     0                       # Read request sizes (log2)
system.mem_ctrls.readPktSize::6                  1688                       # Read request sizes (log2)
system.mem_ctrls.writePktSize::0                    0                       # Write request sizes (log2)
system.mem_ctrls.writePktSize::1                    0                       # Write request sizes (log2)
system.mem_ctrls.writePktSize::2                    0                       # Write request sizes (log2)
system.mem_ctrls.writePktSize::3                    0                       # Write request sizes (log2)
system.mem_ctrls.writePktSize::4                    0                       # Write request sizes (log2)
system.mem_ctrls.writePktSize::5                    0                       # Write request sizes (log2)
system.mem_ctrls.writePktSize::6                   18                       # Write request sizes (log2)
system.mem_ctrls.rdQLenPdf::0                     823                       # What read queue length does an incoming req see
system.mem_ctrls.rdQLenPdf::1                     305                       # What read queue length does an incoming req see
system.mem_ctrls.rdQLenPdf::2                     129                       # What read queue length does an incoming req see
system.mem_ctrls.rdQLenPdf::3                      79                       # What read queue length does an incoming req see
system.mem_ctrls.rdQLenPdf::4                      67                       # What read queue length does an incoming req see
system.mem_ctrls.rdQLenPdf::5                      50                       # What read queue length does an incoming req see
system.mem_ctrls.rdQLenPdf::6                      40                       # What read queue length does an incoming req see
system.mem_ctrls.rdQLenPdf::7                      40                       # What read queue length does an incoming req see
system.mem_ctrls.rdQLenPdf::8                      24                       # What read queue length does an incoming req see
system.mem_ctrls.rdQLenPdf::9                      33                       # What read queue length does an incoming req see
system.mem_ctrls.rdQLenPdf::10                     27                       # What read queue length does an incoming req see
system.mem_ctrls.rdQLenPdf::11                     13                       # What read queue length does an incoming req see
system.mem_ctrls.rdQLenPdf::12                     15                       # What read queue length does an incoming req see
system.mem_ctrls.rdQLenPdf::13                      9                       # What read queue length does an incoming req see
system.mem_ctrls.rdQLenPdf::14                      3                       # What read queue length does an incoming req see
system.mem_ctrls.rdQLenPdf::15                      1                       # What read queue length does an incoming req see
system.mem_ctrls.rdQLenPdf::16                      1                       # What read queue length does an incoming req see
system.mem_ctrls.rdQLenPdf::17                      0                       # What read queue length does an incoming req see
system.mem_ctrls.rdQLenPdf::18                      0                       # What read queue length does an incoming req see
system.mem_ctrls.rdQLenPdf::19                      0                       # What read queue length does an incoming req see
system.mem_ctrls.rdQLenPdf::20                      0                       # What read queue length does an incoming req see
system.mem_ctrls.rdQLenPdf::21                      0                       # What read queue length does an incoming req see
system.mem_ctrls.rdQLenPdf::22                      0                       # What read queue length does an incoming req see
system.mem_ctrls.rdQLenPdf::23                      0                       # What read queue length does an incoming req see
system.mem_ctrls.rdQLenPdf::24                      0                       # What read queue length does an incoming req see
system.mem_ctrls.rdQLenPdf::25                      0                       # What read queue length does an incoming req see
system.mem_ctrls.rdQLenPdf::26                      0                       # What read queue length does an incoming req see
system.mem_ctrls.rdQLenPdf::27                      0                       # What read queue length does an incoming req see
system.mem_ctrls.rdQLenPdf::28                      0                       # What read queue length does an incoming req see
system.mem_ctrls.rdQLenPdf::29                      0                       # What read queue length does an incoming req see
system.mem_ctrls.rdQLenPdf::30                      0                       # What read queue length does an incoming req see
system.mem_ctrls.rdQLenPdf::31                      0                       # What read queue length does an incoming req see
system.mem_ctrls.wrQLenPdf::0                       1                       # What write queue length does an incoming req see
system.mem_ctrls.wrQLenPdf::1                       1                       # What write queue length does an incoming req see
system.mem_ctrls.wrQLenPdf::2                       1                       # What write queue length does an incoming req see
system.mem_ctrls.wrQLenPdf::3                       1                       # What write queue length does an incoming req see
system.mem_ctrls.wrQLenPdf::4                       1                       # What write queue length does an incoming req see
system.mem_ctrls.wrQLenPdf::5                       1                       # What write queue length does an incoming req see
system.mem_ctrls.wrQLenPdf::6                       1                       # What write queue length does an incoming req see
system.mem_ctrls.wrQLenPdf::7                       1                       # What write queue length does an incoming req see
system.mem_ctrls.wrQLenPdf::8                       1                       # What write queue length does an incoming req see
system.mem_ctrls.wrQLenPdf::9                       1                       # What write queue length does an incoming req see
system.mem_ctrls.wrQLenPdf::10                      1                       # What write queue length does an incoming req see
system.mem_ctrls.wrQLenPdf::11                      1                       # What write queue length does an incoming req see
system.mem_ctrls.wrQLenPdf::12                      1                       # What write queue length does an incoming req see
system.mem_ctrls.wrQLenPdf::13                      1                       # What write queue length does an incoming req see
system.mem_ctrls.wrQLenPdf::14                      1                       # What write queue length does an incoming req see
system.mem_ctrls.wrQLenPdf::15                      1                       # What write queue length does an incoming req see
system.mem_ctrls.wrQLenPdf::16                      0                       # What write queue length does an incoming req see
system.mem_ctrls.wrQLenPdf::17                      0                       # What write queue length does an incoming req see
system.mem_ctrls.wrQLenPdf::18                      0                       # What write queue length does an incoming req see
system.mem_ctrls.wrQLenPdf::19                      0                       # What write queue length does an incoming req see
system.mem_ctrls.wrQLenPdf::20                      0                       # What write queue length does an incoming req see
system.mem_ctrls.wrQLenPdf::21                      0                       # What write queue length does an incoming req see
system.mem_ctrls.wrQLenPdf::22                      0                       # What write queue length does an incoming req see
system.mem_ctrls.wrQLenPdf::23                      0                       # What write queue length does an incoming req see
system.mem_ctrls.wrQLenPdf::24                      0                       # What write queue length does an incoming req see
system.mem_ctrls.wrQLenPdf::25                      0                       # What write queue length does an incoming req see
system.mem_ctrls.wrQLenPdf::26                      0                       # What write queue length does an incoming req see
system.mem_ctrls.wrQLenPdf::27                      0                       # What write queue length does an incoming req see
system.mem_ctrls.wrQLenPdf::28                      0                       # What write queue length does an incoming req see
system.mem_ctrls.wrQLenPdf::29                      0                       # What write queue length does an incoming req see
system.mem_ctrls.wrQLenPdf::30                      0                       # What write queue length does an incoming req see
system.mem_ctrls.wrQLenPdf::31                      0                       # What write queue length does an incoming req see
system.mem_ctrls.wrQLenPdf::32                      0                       # What write queue length does an incoming req see
system.mem_ctrls.wrQLenPdf::33                      0                       # What write queue length does an incoming req see
system.mem_ctrls.wrQLenPdf::34                      0                       # What write queue length does an incoming req see
system.mem_ctrls.wrQLenPdf::35                      0                       # What write queue length does an incoming req see
system.mem_ctrls.wrQLenPdf::36                      0                       # What write queue length does an incoming req see
system.mem_ctrls.wrQLenPdf::37                      0                       # What write queue length does an incoming req see
system.mem_ctrls.wrQLenPdf::38                      0                       # What write queue length does an incoming req see
system.mem_ctrls.wrQLenPdf::39                      0                       # What write queue length does an incoming req see
system.mem_ctrls.wrQLenPdf::40                      0                       # What write queue length does an incoming req see
system.mem_ctrls.wrQLenPdf::41                      0                       # What write queue length does an incoming req see
system.mem_ctrls.wrQLenPdf::42                      0                       # What write queue length does an incoming req see
system.mem_ctrls.wrQLenPdf::43                      0                       # What write queue length does an incoming req see
system.mem_ctrls.wrQLenPdf::44                      0                       # What write queue length does an incoming req see
system.mem_ctrls.wrQLenPdf::45                      0                       # What write queue length does an incoming req see
system.mem_ctrls.wrQLenPdf::46                      0                       # What write queue length does an incoming req see
system.mem_ctrls.wrQLenPdf::47                      0                       # What write queue length does an incoming req see
system.mem_ctrls.wrQLenPdf::48                      0                       # What write queue length does an incoming req see
system.mem_ctrls.wrQLenPdf::49                      0                       # What write queue length does an incoming req see
system.mem_ctrls.wrQLenPdf::50                      0                       # What write queue length does an incoming req see
system.mem_ctrls.wrQLenPdf::51                      0                       # What write queue length does an incoming req see
system.mem_ctrls.wrQLenPdf::52                      0                       # What write queue length does an incoming req see
system.mem_ctrls.wrQLenPdf::53                      0                       # What write queue length does an incoming req see
system.mem_ctrls.wrQLenPdf::54                      0                       # What write queue length does an incoming req see
system.mem_ctrls.wrQLenPdf::55                      0                       # What write queue length does an incoming req see
system.mem_ctrls.wrQLenPdf::56                      0                       # What write queue length does an incoming req see
system.mem_ctrls.wrQLenPdf::57                      0                       # What write queue length does an incoming req see
system.mem_ctrls.wrQLenPdf::58                      0                       # What write queue length does an incoming req see
system.mem_ctrls.wrQLenPdf::59                      0                       # What write queue length does an incoming req see
system.mem_ctrls.wrQLenPdf::60                      0                       # What write queue length does an incoming req see
system.mem_ctrls.wrQLenPdf::61                      0                       # What write queue length does an incoming req see
system.mem_ctrls.wrQLenPdf::62                      0                       # What write queue length does an incoming req see
system.mem_ctrls.wrQLenPdf::63                      0                       # What write queue length does an incoming req see
system.mem_ctrls.bytesPerActivate::samples          328                       # Bytes accessed per row activation
system.mem_ctrls.bytesPerActivate::mean    321.560976                       # Bytes accessed per row activation
system.mem_ctrls.bytesPerActivate::gmean   182.799297                       # Bytes accessed per row activation
system.mem_ctrls.bytesPerActivate::stdev   345.608787                       # Bytes accessed per row activation
system.mem_ctrls.bytesPerActivate::0-127          132     40.24%     40.24% # Bytes accessed per row activation
system.mem_ctrls.bytesPerActivate::128-255           67     20.43%     60.67% # Bytes accessed per row activation
system.mem_ctrls.bytesPerActivate::256-383           28      8.54%     69.21% # Bytes accessed per row activation
system.mem_ctrls.bytesPerActivate::384-511           27      8.23%     77.44% # Bytes accessed per row activation
system.mem_ctrls.bytesPerActivate::512-639            9      2.74%     80.18% # Bytes accessed per row activation
system.mem_ctrls.bytesPerActivate::640-767            6      1.83%     82.01% # Bytes accessed per row activation
system.mem_ctrls.bytesPerActivate::768-895            7      2.13%     84.15% # Bytes accessed per row activation
system.mem_ctrls.bytesPerActivate::896-1023            4      1.22%     85.37% # Bytes accessed per row activation
system.mem_ctrls.bytesPerActivate::1024-1151           48     14.63%    100.00% # Bytes accessed per row activation
system.mem_ctrls.bytesPerActivate::total          328                       # Bytes accessed per row activation
system.mem_ctrls.totQLat                     26294500                       # Total ticks spent queuing
system.mem_ctrls.totMemAccLat                57400750                       # Total ticks spent from burst creation until serviced by the DRAM
system.mem_ctrls.totBusLat                    8295000                       # Total ticks spent in databus transfers
system.mem_ctrls.avgQLat                     15849.61                       # Average queueing delay per DRAM burst
system.mem_ctrls.avgBusLat                    5000.00                       # Average bus latency per DRAM burst
system.mem_ctrls.avgMemAccLat                34599.61                       # Average memory access latency per DRAM burst
system.mem_ctrls.avgRdBW                      1498.59                       # Average DRAM read bandwidth in MiByte/s
system.mem_ctrls.avgWrBW                         0.00                       # Average achieved write bandwidth in MiByte/s
system.mem_ctrls.avgRdBWSys                   1524.79                       # Average system read bandwidth in MiByte/s
system.mem_ctrls.avgWrBWSys                     16.26                       # Average system write bandwidth in MiByte/s
system.mem_ctrls.peakBW                      12800.00                       # Theoretical peak bandwidth in MiByte/s
system.mem_ctrls.busUtil                        11.71                       # Data bus utilization in percentage
system.mem_ctrls.busUtilRead                    11.71                       # Data bus utilization in percentage for reads
system.mem_ctrls.busUtilWrite                    0.00                       # Data bus utilization in percentage for writes
system.mem_ctrls.avgRdQLen                       1.73                       # Average read queue length when enqueuing
system.mem_ctrls.avgWrQLen                       5.33                       # Average write queue length when enqueuing
system.mem_ctrls.readRowHits                     1328                       # Number of row buffer hits during reads
system.mem_ctrls.writeRowHits                       0                       # Number of row buffer hits during writes
system.mem_ctrls.readRowHitRate                 80.05                       # Row buffer hit rate for reads
system.mem_ctrls.writeRowHitRate                 0.00                       # Row buffer hit rate for writes
system.mem_ctrls.avgGap                      41528.72                       # Average gap between requests
system.mem_ctrls.pageHitRate                    79.28                       # Row buffer hit rate, read and write combined
system.mem_ctrls_0.actEnergy                  2177280                       # Energy for activate commands per rank (pJ)
system.mem_ctrls_0.preEnergy                  1188000                       # Energy for precharge commands per rank (pJ)
system.mem_ctrls_0.readEnergy                11395800                       # Energy for read commands per rank (pJ)
system.mem_ctrls_0.writeEnergy                      0                       # Energy for write commands per rank (pJ)
system.mem_ctrls_0.refreshEnergy              4577040                       # Energy for refresh commands per rank (pJ)
system.mem_ctrls_0.actBackEnergy             45373995                       # Energy for active background per rank (pJ)
system.mem_ctrls_0.preBackEnergy              2400000                       # Energy for precharge background per rank (pJ)
system.mem_ctrls_0.totalEnergy               67112115                       # Total energy per rank (pJ)
system.mem_ctrls_0.averagePower            954.161119                       # Core power per rank (mW)
system.mem_ctrls_0.memoryStateTime::IDLE      4193500                       # Time in different power states
system.mem_ctrls_0.memoryStateTime::REF       2340000                       # Time in different power states
system.mem_ctrls_0.memoryStateTime::PRE_PDN            0                       # Time in different power states
system.mem_ctrls_0.memoryStateTime::ACT      64315000                       # Time in different power states
system.mem_ctrls_0.memoryStateTime::ACT_PDN            0                       # Time in different power states
system.mem_ctrls_1.actEnergy                   302400                       # Energy for activate commands per rank (pJ)
system.mem_ctrls_1.preEnergy                   165000                       # Energy for precharge commands per rank (pJ)
system.mem_ctrls_1.readEnergy                 1458600                       # Energy for read commands per rank (pJ)
system.mem_ctrls_1.writeEnergy                      0                       # Energy for write commands per rank (pJ)
system.mem_ctrls_1.refreshEnergy              4577040                       # Energy for refresh commands per rank (pJ)
system.mem_ctrls_1.actBackEnergy             32655870                       # Energy for active background per rank (pJ)
system.mem_ctrls_1.preBackEnergy             13556250                       # Energy for precharge background per rank (pJ)
system.mem_ctrls_1.totalEnergy               52715160                       # Total energy per rank (pJ)
system.mem_ctrls_1.averagePower            749.473564                       # Core power per rank (mW)
system.mem_ctrls_1.memoryStateTime::IDLE     22343250                       # Time in different power states
system.mem_ctrls_1.memoryStateTime::REF       2340000                       # Time in different power states
system.mem_ctrls_1.memoryStateTime::PRE_PDN            0                       # Time in different power states
system.mem_ctrls_1.memoryStateTime::ACT      45666750                       # Time in different power states
system.mem_ctrls_1.memoryStateTime::ACT_PDN            0                       # Time in different power states
system.cpu0.branchPred.lookups                  11977                       # Number of BP lookups
system.cpu0.branchPred.condPredicted             9668                       # Number of conditional branches predicted
system.cpu0.branchPred.condIncorrect             1427                       # Number of conditional branches incorrect
system.cpu0.branchPred.BTBLookups                6677                       # Number of BTB lookups
system.cpu0.branchPred.BTBHits                   5890                       # Number of BTB hits
system.cpu0.branchPred.BTBCorrect                   0                       # Number of correct BTB predictions (this stat may not work properly.
system.cpu0.branchPred.BTBHitPct            88.213269                       # BTB Hit Percentage
system.cpu0.branchPred.usedRAS                    770                       # Number of times the RAS was used to get a target.
system.cpu0.branchPred.RASInCorrect                 7                       # Number of incorrect RAS predictions.
system.cpu_voltage_domain.voltage                   1                       # Voltage in Volts
system.cpu_clk_domain.clock                       500                       # Clock period in ticks
system.cpu0.dstage2_mmu.stage2_tlb.walker.walks            0                       # Table walker walks requested
system.cpu0.dstage2_mmu.stage2_tlb.walker.walkRequestOrigin_Requested::Data            0                       # Table walker requests started/completed, data/inst
system.cpu0.dstage2_mmu.stage2_tlb.walker.walkRequestOrigin_Requested::Inst            0                       # Table walker requests started/completed, data/inst
system.cpu0.dstage2_mmu.stage2_tlb.walker.walkRequestOrigin_Requested::total            0                       # Table walker requests started/completed, data/inst
system.cpu0.dstage2_mmu.stage2_tlb.walker.walkRequestOrigin_Completed::Data            0                       # Table walker requests started/completed, data/inst
system.cpu0.dstage2_mmu.stage2_tlb.walker.walkRequestOrigin_Completed::Inst            0                       # Table walker requests started/completed, data/inst
system.cpu0.dstage2_mmu.stage2_tlb.walker.walkRequestOrigin_Completed::total            0                       # Table walker requests started/completed, data/inst
system.cpu0.dstage2_mmu.stage2_tlb.walker.walkRequestOrigin::total            0                       # Table walker requests started/completed, data/inst
system.cpu0.dstage2_mmu.stage2_tlb.inst_hits            0                       # ITB inst hits
system.cpu0.dstage2_mmu.stage2_tlb.inst_misses            0                       # ITB inst misses
system.cpu0.dstage2_mmu.stage2_tlb.read_hits            0                       # DTB read hits
system.cpu0.dstage2_mmu.stage2_tlb.read_misses            0                       # DTB read misses
system.cpu0.dstage2_mmu.stage2_tlb.write_hits            0                       # DTB write hits
system.cpu0.dstage2_mmu.stage2_tlb.write_misses            0                       # DTB write misses
system.cpu0.dstage2_mmu.stage2_tlb.flush_tlb            0                       # Number of times complete TLB was flushed
system.cpu0.dstage2_mmu.stage2_tlb.flush_tlb_mva            0                       # Number of times TLB was flushed by MVA
system.cpu0.dstage2_mmu.stage2_tlb.flush_tlb_mva_asid            0                       # Number of times TLB was flushed by MVA & ASID
system.cpu0.dstage2_mmu.stage2_tlb.flush_tlb_asid            0                       # Number of times TLB was flushed by ASID
system.cpu0.dstage2_mmu.stage2_tlb.flush_entries            0                       # Number of entries that have been flushed from TLB
system.cpu0.dstage2_mmu.stage2_tlb.align_faults            0                       # Number of TLB faults due to alignment restrictions
system.cpu0.dstage2_mmu.stage2_tlb.prefetch_faults            0                       # Number of TLB faults due to prefetch
system.cpu0.dstage2_mmu.stage2_tlb.domain_faults            0                       # Number of TLB faults due to domain restrictions
system.cpu0.dstage2_mmu.stage2_tlb.perms_faults            0                       # Number of TLB faults due to permissions restrictions
system.cpu0.dstage2_mmu.stage2_tlb.read_accesses            0                       # DTB read accesses
system.cpu0.dstage2_mmu.stage2_tlb.write_accesses            0                       # DTB write accesses
system.cpu0.dstage2_mmu.stage2_tlb.inst_accesses            0                       # ITB inst accesses
system.cpu0.dstage2_mmu.stage2_tlb.hits             0                       # DTB hits
system.cpu0.dstage2_mmu.stage2_tlb.misses            0                       # DTB misses
system.cpu0.dstage2_mmu.stage2_tlb.accesses            0                       # DTB accesses
system.cpu0.dtb.walker.walks                        0                       # Table walker walks requested
system.cpu0.dtb.walker.walkRequestOrigin_Requested::Data            0                       # Table walker requests started/completed, data/inst
system.cpu0.dtb.walker.walkRequestOrigin_Requested::Inst            0                       # Table walker requests started/completed, data/inst
system.cpu0.dtb.walker.walkRequestOrigin_Requested::total            0                       # Table walker requests started/completed, data/inst
system.cpu0.dtb.walker.walkRequestOrigin_Completed::Data            0                       # Table walker requests started/completed, data/inst
system.cpu0.dtb.walker.walkRequestOrigin_Completed::Inst            0                       # Table walker requests started/completed, data/inst
system.cpu0.dtb.walker.walkRequestOrigin_Completed::total            0                       # Table walker requests started/completed, data/inst
system.cpu0.dtb.walker.walkRequestOrigin::total            0                       # Table walker requests started/completed, data/inst
system.cpu0.dtb.inst_hits                           0                       # ITB inst hits
system.cpu0.dtb.inst_misses                         0                       # ITB inst misses
system.cpu0.dtb.read_hits                           0                       # DTB read hits
system.cpu0.dtb.read_misses                         0                       # DTB read misses
system.cpu0.dtb.write_hits                          0                       # DTB write hits
system.cpu0.dtb.write_misses                        0                       # DTB write misses
system.cpu0.dtb.flush_tlb                           0                       # Number of times complete TLB was flushed
system.cpu0.dtb.flush_tlb_mva                       0                       # Number of times TLB was flushed by MVA
system.cpu0.dtb.flush_tlb_mva_asid                  0                       # Number of times TLB was flushed by MVA & ASID
system.cpu0.dtb.flush_tlb_asid                      0                       # Number of times TLB was flushed by ASID
system.cpu0.dtb.flush_entries                       0                       # Number of entries that have been flushed from TLB
system.cpu0.dtb.align_faults                        0                       # Number of TLB faults due to alignment restrictions
system.cpu0.dtb.prefetch_faults                     0                       # Number of TLB faults due to prefetch
system.cpu0.dtb.domain_faults                       0                       # Number of TLB faults due to domain restrictions
system.cpu0.dtb.perms_faults                        0                       # Number of TLB faults due to permissions restrictions
system.cpu0.dtb.read_accesses                       0                       # DTB read accesses
system.cpu0.dtb.write_accesses                      0                       # DTB write accesses
system.cpu0.dtb.inst_accesses                       0                       # ITB inst accesses
system.cpu0.dtb.hits                                0                       # DTB hits
system.cpu0.dtb.misses                              0                       # DTB misses
system.cpu0.dtb.accesses                            0                       # DTB accesses
system.cpu0.istage2_mmu.stage2_tlb.walker.walks            0                       # Table walker walks requested
system.cpu0.istage2_mmu.stage2_tlb.walker.walkRequestOrigin_Requested::Data            0                       # Table walker requests started/completed, data/inst
system.cpu0.istage2_mmu.stage2_tlb.walker.walkRequestOrigin_Requested::Inst            0                       # Table walker requests started/completed, data/inst
system.cpu0.istage2_mmu.stage2_tlb.walker.walkRequestOrigin_Requested::total            0                       # Table walker requests started/completed, data/inst
system.cpu0.istage2_mmu.stage2_tlb.walker.walkRequestOrigin_Completed::Data            0                       # Table walker requests started/completed, data/inst
system.cpu0.istage2_mmu.stage2_tlb.walker.walkRequestOrigin_Completed::Inst            0                       # Table walker requests started/completed, data/inst
system.cpu0.istage2_mmu.stage2_tlb.walker.walkRequestOrigin_Completed::total            0                       # Table walker requests started/completed, data/inst
system.cpu0.istage2_mmu.stage2_tlb.walker.walkRequestOrigin::total            0                       # Table walker requests started/completed, data/inst
system.cpu0.istage2_mmu.stage2_tlb.inst_hits            0                       # ITB inst hits
system.cpu0.istage2_mmu.stage2_tlb.inst_misses            0                       # ITB inst misses
system.cpu0.istage2_mmu.stage2_tlb.read_hits            0                       # DTB read hits
system.cpu0.istage2_mmu.stage2_tlb.read_misses            0                       # DTB read misses
system.cpu0.istage2_mmu.stage2_tlb.write_hits            0                       # DTB write hits
system.cpu0.istage2_mmu.stage2_tlb.write_misses            0                       # DTB write misses
system.cpu0.istage2_mmu.stage2_tlb.flush_tlb            0                       # Number of times complete TLB was flushed
system.cpu0.istage2_mmu.stage2_tlb.flush_tlb_mva            0                       # Number of times TLB was flushed by MVA
system.cpu0.istage2_mmu.stage2_tlb.flush_tlb_mva_asid            0                       # Number of times TLB was flushed by MVA & ASID
system.cpu0.istage2_mmu.stage2_tlb.flush_tlb_asid            0                       # Number of times TLB was flushed by ASID
system.cpu0.istage2_mmu.stage2_tlb.flush_entries            0                       # Number of entries that have been flushed from TLB
system.cpu0.istage2_mmu.stage2_tlb.align_faults            0                       # Number of TLB faults due to alignment restrictions
system.cpu0.istage2_mmu.stage2_tlb.prefetch_faults            0                       # Number of TLB faults due to prefetch
system.cpu0.istage2_mmu.stage2_tlb.domain_faults            0                       # Number of TLB faults due to domain restrictions
system.cpu0.istage2_mmu.stage2_tlb.perms_faults            0                       # Number of TLB faults due to permissions restrictions
system.cpu0.istage2_mmu.stage2_tlb.read_accesses            0                       # DTB read accesses
system.cpu0.istage2_mmu.stage2_tlb.write_accesses            0                       # DTB write accesses
system.cpu0.istage2_mmu.stage2_tlb.inst_accesses            0                       # ITB inst accesses
system.cpu0.istage2_mmu.stage2_tlb.hits             0                       # DTB hits
system.cpu0.istage2_mmu.stage2_tlb.misses            0                       # DTB misses
system.cpu0.istage2_mmu.stage2_tlb.accesses            0                       # DTB accesses
system.cpu0.itb.walker.walks                        0                       # Table walker walks requested
system.cpu0.itb.walker.walkRequestOrigin_Requested::Data            0                       # Table walker requests started/completed, data/inst
system.cpu0.itb.walker.walkRequestOrigin_Requested::Inst            0                       # Table walker requests started/completed, data/inst
system.cpu0.itb.walker.walkRequestOrigin_Requested::total            0                       # Table walker requests started/completed, data/inst
system.cpu0.itb.walker.walkRequestOrigin_Completed::Data            0                       # Table walker requests started/completed, data/inst
system.cpu0.itb.walker.walkRequestOrigin_Completed::Inst            0                       # Table walker requests started/completed, data/inst
system.cpu0.itb.walker.walkRequestOrigin_Completed::total            0                       # Table walker requests started/completed, data/inst
system.cpu0.itb.walker.walkRequestOrigin::total            0                       # Table walker requests started/completed, data/inst
system.cpu0.itb.inst_hits                           0                       # ITB inst hits
system.cpu0.itb.inst_misses                         0                       # ITB inst misses
system.cpu0.itb.read_hits                           0                       # DTB read hits
system.cpu0.itb.read_misses                         0                       # DTB read misses
system.cpu0.itb.write_hits                          0                       # DTB write hits
system.cpu0.itb.write_misses                        0                       # DTB write misses
system.cpu0.itb.flush_tlb                           0                       # Number of times complete TLB was flushed
system.cpu0.itb.flush_tlb_mva                       0                       # Number of times TLB was flushed by MVA
system.cpu0.itb.flush_tlb_mva_asid                  0                       # Number of times TLB was flushed by MVA & ASID
system.cpu0.itb.flush_tlb_asid                      0                       # Number of times TLB was flushed by ASID
system.cpu0.itb.flush_entries                       0                       # Number of entries that have been flushed from TLB
system.cpu0.itb.align_faults                        0                       # Number of TLB faults due to alignment restrictions
system.cpu0.itb.prefetch_faults                     0                       # Number of TLB faults due to prefetch
system.cpu0.itb.domain_faults                       0                       # Number of TLB faults due to domain restrictions
system.cpu0.itb.perms_faults                        0                       # Number of TLB faults due to permissions restrictions
system.cpu0.itb.read_accesses                       0                       # DTB read accesses
system.cpu0.itb.write_accesses                      0                       # DTB write accesses
system.cpu0.itb.inst_accesses                       0                       # ITB inst accesses
system.cpu0.itb.hits                                0                       # DTB hits
system.cpu0.itb.misses                              0                       # DTB misses
system.cpu0.itb.accesses                            0                       # DTB accesses
system.cpu0.workload.num_syscalls                 183                       # Number of system calls
system.cpu0.numCycles                          141702                       # number of cpu cycles simulated
system.cpu0.numWorkItemsStarted                     0                       # number of work items this cpu started
system.cpu0.numWorkItemsCompleted                   0                       # number of work items this cpu completed
system.cpu0.fetch.icacheStallCycles             15286                       # Number of cycles fetch is stalled on an Icache miss
system.cpu0.fetch.Insts                         95718                       # Number of instructions fetch has processed
system.cpu0.fetch.Branches                      11977                       # Number of branches that fetch encountered
system.cpu0.fetch.predictedBranches              6660                       # Number of branches that fetch has predicted taken
system.cpu0.fetch.Cycles                        84961                       # Number of cycles fetch has run and was not squashing or blocked
system.cpu0.fetch.SquashCycles                   2939                       # Number of cycles fetch has spent squashing
system.cpu0.fetch.MiscStallCycles                 257                       # Number of cycles fetch has spent waiting on interrupts, or bad addresses, or out of MSHRs
system.cpu0.fetch.PendingTrapStallCycles          108                       # Number of stall cycles due to pending traps
system.cpu0.fetch.IcacheWaitRetryStallCycles          442                       # Number of stall cycles due to full MSHR
system.cpu0.fetch.CacheLines                    28606                       # Number of cache lines fetched
system.cpu0.fetch.IcacheSquashes                  362                       # Number of outstanding Icache misses that were squashed
system.cpu0.fetch.rateDist::samples            102523                       # Number of instructions fetched each cycle (Total)
system.cpu0.fetch.rateDist::mean             1.047316                       # Number of instructions fetched each cycle (Total)
system.cpu0.fetch.rateDist::stdev            1.269484                       # Number of instructions fetched each cycle (Total)
system.cpu0.fetch.rateDist::underflows              0      0.00%      0.00% # Number of instructions fetched each cycle (Total)
system.cpu0.fetch.rateDist::0                   53191     51.88%     51.88% # Number of instructions fetched each cycle (Total)
system.cpu0.fetch.rateDist::1                   18400     17.95%     69.83% # Number of instructions fetched each cycle (Total)
system.cpu0.fetch.rateDist::2                    3822      3.73%     73.56% # Number of instructions fetched each cycle (Total)
system.cpu0.fetch.rateDist::3                   27110     26.44%    100.00% # Number of instructions fetched each cycle (Total)
system.cpu0.fetch.rateDist::overflows               0      0.00%    100.00% # Number of instructions fetched each cycle (Total)
system.cpu0.fetch.rateDist::min_value               0                       # Number of instructions fetched each cycle (Total)
system.cpu0.fetch.rateDist::max_value               3                       # Number of instructions fetched each cycle (Total)
system.cpu0.fetch.rateDist::total              102523                       # Number of instructions fetched each cycle (Total)
system.cpu0.fetch.branchRate                 0.084522                       # Number of branch fetches per cycle
system.cpu0.fetch.rate                       0.675488                       # Number of inst fetches per cycle
system.cpu0.decode.IdleCycles                   14449                       # Number of cycles decode is idle
system.cpu0.decode.BlockedCycles                41925                       # Number of cycles decode is blocked
system.cpu0.decode.RunCycles                    43392                       # Number of cycles decode is running
system.cpu0.decode.UnblockCycles                 1610                       # Number of cycles decode is unblocking
system.cpu0.decode.SquashCycles                  1147                       # Number of cycles decode is squashing
system.cpu0.decode.BranchResolved                 916                       # Number of times decode resolved a branch
system.cpu0.decode.BranchMispred                  346                       # Number of times decode detected a branch misprediction
system.cpu0.decode.DecodedInsts                 96501                       # Number of instructions handled by decode
system.cpu0.decode.SquashedInsts                 5018                       # Number of squashed instructions handled by decode
system.cpu0.rename.SquashCycles                  1147                       # Number of cycles rename is squashing
system.cpu0.rename.IdleCycles                   18604                       # Number of cycles rename is idle
system.cpu0.rename.BlockCycles                   3502                       # Number of cycles rename is blocking
system.cpu0.rename.serializeStallCycles          7494                       # count of cycles rename stalled for serializing inst
system.cpu0.rename.RunCycles                    40809                       # Number of cycles rename is running
system.cpu0.rename.UnblockCycles                30967                       # Number of cycles rename is unblocking
system.cpu0.rename.RenamedInsts                 92528                       # Number of instructions processed by rename
system.cpu0.rename.SquashedInsts                 1810                       # Number of squashed instructions processed by rename
system.cpu0.rename.ROBFullEvents                  100                       # Number of times rename has blocked due to ROB full
system.cpu0.rename.IQFullEvents                    11                       # Number of times rename has blocked due to IQ full
system.cpu0.rename.LQFullEvents                     1                       # Number of times rename has blocked due to LQ full
system.cpu0.rename.SQFullEvents                 30142                       # Number of times rename has blocked due to SQ full
system.cpu0.rename.RenamedOperands             108394                       # Number of destination operands rename has renamed
system.cpu0.rename.RenameLookups               453337                       # Number of register rename lookups that rename has made
system.cpu0.rename.int_rename_lookups          138920                       # Number of integer rename lookups
system.cpu0.rename.fp_rename_lookups               22                       # Number of floating rename lookups
system.cpu0.rename.CommittedMaps                96282                       # Number of HB maps that are committed
system.cpu0.rename.UndoneMaps                   12112                       # Number of HB maps that are undone due to squashing
system.cpu0.rename.serializingInsts               115                       # count of serializing insts renamed
system.cpu0.rename.tempSerializingInsts           113                       # count of temporary serializing insts renamed
system.cpu0.rename.skidInsts                     3689                       # count of insts added to the skid buffer
system.cpu0.memDep0.insertedLoads               15992                       # Number of loads inserted to the mem dependence unit.
system.cpu0.memDep0.insertedStores              11505                       # Number of stores inserted to the mem dependence unit.
system.cpu0.memDep0.conflictingLoads              237                       # Number of conflicting loads.
system.cpu0.memDep0.conflictingStores             104                       # Number of conflicting stores.
system.cpu0.iq.iqInstsAdded                     90551                       # Number of instructions added to the IQ (excludes non-spec)
system.cpu0.iq.iqNonSpecInstsAdded                250                       # Number of non-speculative instructions added to the IQ
system.cpu0.iq.iqInstsIssued                    87314                       # Number of instructions issued
system.cpu0.iq.iqSquashedInstsIssued              508                       # Number of squashed instructions issued
system.cpu0.iq.iqSquashedInstsExamined           9389                       # Number of squashed instructions iterated over during squash; mainly for profiling
system.cpu0.iq.iqSquashedOperandsExamined        23605                       # Number of squashed operands that are examined and possibly removed from graph
system.cpu0.iq.iqSquashedNonSpecRemoved            49                       # Number of squashed non-spec instructions that were removed
system.cpu0.iq.issued_per_cycle::samples       102523                       # Number of insts issued each cycle
system.cpu0.iq.issued_per_cycle::mean        0.851653                       # Number of insts issued each cycle
system.cpu0.iq.issued_per_cycle::stdev       1.175392                       # Number of insts issued each cycle
system.cpu0.iq.issued_per_cycle::underflows            0      0.00%      0.00% # Number of insts issued each cycle
system.cpu0.iq.issued_per_cycle::0              61105     59.60%     59.60% # Number of insts issued each cycle
system.cpu0.iq.issued_per_cycle::1              12831     12.52%     72.12% # Number of insts issued each cycle
system.cpu0.iq.issued_per_cycle::2              12413     12.11%     84.22% # Number of insts issued each cycle
system.cpu0.iq.issued_per_cycle::3              15042     14.67%     98.90% # Number of insts issued each cycle
system.cpu0.iq.issued_per_cycle::4               1129      1.10%    100.00% # Number of insts issued each cycle
system.cpu0.iq.issued_per_cycle::5                  3      0.00%    100.00% # Number of insts issued each cycle
system.cpu0.iq.issued_per_cycle::6                  0      0.00%    100.00% # Number of insts issued each cycle
system.cpu0.iq.issued_per_cycle::7                  0      0.00%    100.00% # Number of insts issued each cycle
system.cpu0.iq.issued_per_cycle::8                  0      0.00%    100.00% # Number of insts issued each cycle
system.cpu0.iq.issued_per_cycle::overflows            0      0.00%    100.00% # Number of insts issued each cycle
system.cpu0.iq.issued_per_cycle::min_value            0                       # Number of insts issued each cycle
system.cpu0.iq.issued_per_cycle::max_value            5                       # Number of insts issued each cycle
system.cpu0.iq.issued_per_cycle::total         102523                       # Number of insts issued each cycle
system.cpu0.iq.fu_full::No_OpClass                  0      0.00%      0.00% # attempts to use FU when none available
system.cpu0.iq.fu_full::IntAlu                   2808     19.25%     19.25% # attempts to use FU when none available
system.cpu0.iq.fu_full::IntMult                   190      1.30%     20.55% # attempts to use FU when none available
system.cpu0.iq.fu_full::IntDiv                      0      0.00%     20.55% # attempts to use FU when none available
system.cpu0.iq.fu_full::FloatAdd                    0      0.00%     20.55% # attempts to use FU when none available
system.cpu0.iq.fu_full::FloatCmp                    0      0.00%     20.55% # attempts to use FU when none available
system.cpu0.iq.fu_full::FloatCvt                    0      0.00%     20.55% # attempts to use FU when none available
system.cpu0.iq.fu_full::FloatMult                   0      0.00%     20.55% # attempts to use FU when none available
system.cpu0.iq.fu_full::FloatDiv                    0      0.00%     20.55% # attempts to use FU when none available
system.cpu0.iq.fu_full::FloatSqrt                   0      0.00%     20.55% # attempts to use FU when none available
system.cpu0.iq.fu_full::SimdAdd                     0      0.00%     20.55% # attempts to use FU when none available
system.cpu0.iq.fu_full::SimdAddAcc                  0      0.00%     20.55% # attempts to use FU when none available
system.cpu0.iq.fu_full::SimdAlu                     0      0.00%     20.55% # attempts to use FU when none available
system.cpu0.iq.fu_full::SimdCmp                     0      0.00%     20.55% # attempts to use FU when none available
system.cpu0.iq.fu_full::SimdCvt                     0      0.00%     20.55% # attempts to use FU when none available
system.cpu0.iq.fu_full::SimdMisc                    0      0.00%     20.55% # attempts to use FU when none available
system.cpu0.iq.fu_full::SimdMult                    0      0.00%     20.55% # attempts to use FU when none available
system.cpu0.iq.fu_full::SimdMultAcc                 0      0.00%     20.55% # attempts to use FU when none available
system.cpu0.iq.fu_full::SimdShift                   0      0.00%     20.55% # attempts to use FU when none available
system.cpu0.iq.fu_full::SimdShiftAcc                0      0.00%     20.55% # attempts to use FU when none available
system.cpu0.iq.fu_full::SimdSqrt                    0      0.00%     20.55% # attempts to use FU when none available
system.cpu0.iq.fu_full::SimdFloatAdd                0      0.00%     20.55% # attempts to use FU when none available
system.cpu0.iq.fu_full::SimdFloatAlu                0      0.00%     20.55% # attempts to use FU when none available
system.cpu0.iq.fu_full::SimdFloatCmp                0      0.00%     20.55% # attempts to use FU when none available
system.cpu0.iq.fu_full::SimdFloatCvt                0      0.00%     20.55% # attempts to use FU when none available
system.cpu0.iq.fu_full::SimdFloatDiv                0      0.00%     20.55% # attempts to use FU when none available
system.cpu0.iq.fu_full::SimdFloatMisc               0      0.00%     20.55% # attempts to use FU when none available
system.cpu0.iq.fu_full::SimdFloatMult               0      0.00%     20.55% # attempts to use FU when none available
system.cpu0.iq.fu_full::SimdFloatMultAcc            0      0.00%     20.55% # attempts to use FU when none available
system.cpu0.iq.fu_full::SimdFloatSqrt               0      0.00%     20.55% # attempts to use FU when none available
system.cpu0.iq.fu_full::MemRead                  6656     45.63%     66.19% # attempts to use FU when none available
system.cpu0.iq.fu_full::MemWrite                 4932     33.81%    100.00% # attempts to use FU when none available
system.cpu0.iq.fu_full::IprAccess                   0      0.00%    100.00% # attempts to use FU when none available
system.cpu0.iq.fu_full::InstPrefetch                0      0.00%    100.00% # attempts to use FU when none available
system.cpu0.iq.FU_type_0::No_OpClass                0      0.00%      0.00% # Type of FU issued
system.cpu0.iq.FU_type_0::IntAlu                51959     59.51%     59.51% # Type of FU issued
system.cpu0.iq.FU_type_0::IntMult                8833     10.12%     69.62% # Type of FU issued
system.cpu0.iq.FU_type_0::IntDiv                    0      0.00%     69.62% # Type of FU issued
system.cpu0.iq.FU_type_0::FloatAdd                  0      0.00%     69.62% # Type of FU issued
system.cpu0.iq.FU_type_0::FloatCmp                  0      0.00%     69.62% # Type of FU issued
system.cpu0.iq.FU_type_0::FloatCvt                  0      0.00%     69.62% # Type of FU issued
system.cpu0.iq.FU_type_0::FloatMult                 0      0.00%     69.62% # Type of FU issued
system.cpu0.iq.FU_type_0::FloatDiv                  0      0.00%     69.62% # Type of FU issued
system.cpu0.iq.FU_type_0::FloatSqrt                 0      0.00%     69.62% # Type of FU issued
system.cpu0.iq.FU_type_0::SimdAdd                   0      0.00%     69.62% # Type of FU issued
system.cpu0.iq.FU_type_0::SimdAddAcc                0      0.00%     69.62% # Type of FU issued
system.cpu0.iq.FU_type_0::SimdAlu                   0      0.00%     69.62% # Type of FU issued
system.cpu0.iq.FU_type_0::SimdCmp                   0      0.00%     69.62% # Type of FU issued
system.cpu0.iq.FU_type_0::SimdCvt                   0      0.00%     69.62% # Type of FU issued
system.cpu0.iq.FU_type_0::SimdMisc                  0      0.00%     69.62% # Type of FU issued
system.cpu0.iq.FU_type_0::SimdMult                  0      0.00%     69.62% # Type of FU issued
system.cpu0.iq.FU_type_0::SimdMultAcc               0      0.00%     69.62% # Type of FU issued
system.cpu0.iq.FU_type_0::SimdShift                 0      0.00%     69.62% # Type of FU issued
system.cpu0.iq.FU_type_0::SimdShiftAcc              0      0.00%     69.62% # Type of FU issued
system.cpu0.iq.FU_type_0::SimdSqrt                  0      0.00%     69.62% # Type of FU issued
system.cpu0.iq.FU_type_0::SimdFloatAdd              0      0.00%     69.62% # Type of FU issued
system.cpu0.iq.FU_type_0::SimdFloatAlu              0      0.00%     69.62% # Type of FU issued
system.cpu0.iq.FU_type_0::SimdFloatCmp              0      0.00%     69.62% # Type of FU issued
system.cpu0.iq.FU_type_0::SimdFloatCvt              0      0.00%     69.62% # Type of FU issued
system.cpu0.iq.FU_type_0::SimdFloatDiv              0      0.00%     69.62% # Type of FU issued
system.cpu0.iq.FU_type_0::SimdFloatMisc             3      0.00%     69.63% # Type of FU issued
system.cpu0.iq.FU_type_0::SimdFloatMult             0      0.00%     69.63% # Type of FU issued
system.cpu0.iq.FU_type_0::SimdFloatMultAcc            0      0.00%     69.63% # Type of FU issued
system.cpu0.iq.FU_type_0::SimdFloatSqrt             0      0.00%     69.63% # Type of FU issued
system.cpu0.iq.FU_type_0::MemRead               15516     17.77%     87.40% # Type of FU issued
system.cpu0.iq.FU_type_0::MemWrite              11003     12.60%    100.00% # Type of FU issued
system.cpu0.iq.FU_type_0::IprAccess                 0      0.00%    100.00% # Type of FU issued
system.cpu0.iq.FU_type_0::InstPrefetch              0      0.00%    100.00% # Type of FU issued
system.cpu0.iq.FU_type_0::total                 87314                       # Type of FU issued
system.cpu0.iq.rate                          0.616180                       # Inst issue rate
system.cpu0.iq.fu_busy_cnt                      14586                       # FU busy when requested
system.cpu0.iq.fu_busy_rate                  0.167052                       # FU busy rate (busy events/executed inst)
system.cpu0.iq.int_inst_queue_reads            292169                       # Number of integer instruction queue reads
system.cpu0.iq.int_inst_queue_writes           100178                       # Number of integer instruction queue writes
system.cpu0.iq.int_inst_queue_wakeup_accesses        84825                       # Number of integer instruction queue wakeup accesses
system.cpu0.iq.fp_inst_queue_reads                 76                       # Number of floating instruction queue reads
system.cpu0.iq.fp_inst_queue_writes                28                       # Number of floating instruction queue writes
system.cpu0.iq.fp_inst_queue_wakeup_accesses           28                       # Number of floating instruction queue wakeup accesses
system.cpu0.iq.int_alu_accesses                101852                       # Number of integer alu accesses
system.cpu0.iq.fp_alu_accesses                     48                       # Number of floating point alu accesses
system.cpu0.iew.lsq.thread0.forwLoads              51                       # Number of loads that had data forwarded from stores
system.cpu0.iew.lsq.thread0.invAddrLoads            0                       # Number of loads ignored due to an invalid address
system.cpu0.iew.lsq.thread0.squashedLoads         2233                       # Number of loads squashed
system.cpu0.iew.lsq.thread0.ignoredResponses            1                       # Number of memory responses ignored because the instruction is squashed
system.cpu0.iew.lsq.thread0.memOrderViolation           17                       # Number of memory ordering violations
system.cpu0.iew.lsq.thread0.squashedStores          937                       # Number of stores squashed
system.cpu0.iew.lsq.thread0.invAddrSwpfs            0                       # Number of software prefetches ignored due to an invalid address
system.cpu0.iew.lsq.thread0.blockedLoads            0                       # Number of blocked loads due to partial load-store forwarding
system.cpu0.iew.lsq.thread0.rescheduledLoads           11                       # Number of loads that were rescheduled
system.cpu0.iew.lsq.thread0.cacheBlocked          328                       # Number of times an access to memory failed due to the cache being blocked
system.cpu0.iew.iewIdleCycles                       0                       # Number of cycles IEW is idle
system.cpu0.iew.iewSquashCycles                  1147                       # Number of cycles IEW is squashing
system.cpu0.iew.iewBlockCycles                    564                       # Number of cycles IEW is blocking
system.cpu0.iew.iewUnblockCycles                 1330                       # Number of cycles IEW is unblocking
system.cpu0.iew.iewDispatchedInsts              90816                       # Number of instructions dispatched to IQ
system.cpu0.iew.iewDispSquashedInsts                0                       # Number of squashed instructions skipped by dispatch
system.cpu0.iew.iewDispLoadInsts                15992                       # Number of dispatched load instructions
system.cpu0.iew.iewDispStoreInsts               11505                       # Number of dispatched store instructions
system.cpu0.iew.iewDispNonSpecInsts               111                       # Number of dispatched non-speculative instructions
system.cpu0.iew.iewIQFullEvents                     4                       # Number of times the IQ has become full, causing a stall
system.cpu0.iew.iewLSQFullEvents                 1325                       # Number of times the LSQ has become full, causing a stall
system.cpu0.iew.memOrderViolationEvents            17                       # Number of memory order violations
system.cpu0.iew.predictedTakenIncorrect           186                       # Number of branches that were predicted taken incorrectly
system.cpu0.iew.predictedNotTakenIncorrect          976                       # Number of branches that were predicted not taken incorrectly
system.cpu0.iew.branchMispredicts                1162                       # Number of branch mispredicts detected at execute
system.cpu0.iew.iewExecutedInsts                85527                       # Number of executed instructions
system.cpu0.iew.iewExecLoadInsts                14843                       # Number of load instructions executed
system.cpu0.iew.iewExecSquashedInsts             1787                       # Number of squashed instructions skipped in execute
system.cpu0.iew.exec_swp                            0                       # number of swp insts executed
system.cpu0.iew.exec_nop                           15                       # number of nop insts executed
system.cpu0.iew.exec_refs                       25673                       # number of memory reference insts executed
system.cpu0.iew.exec_branches                    8458                       # Number of branches executed
system.cpu0.iew.exec_stores                     10830                       # Number of stores executed
system.cpu0.iew.exec_rate                    0.603569                       # Inst execution rate
system.cpu0.iew.wb_sent                         84983                       # cumulative count of insts sent to commit
system.cpu0.iew.wb_count                        84853                       # cumulative count of insts written-back
system.cpu0.iew.wb_producers                    49782                       # num instructions producing a value
system.cpu0.iew.wb_consumers                    81409                       # num instructions consuming a value
system.cpu0.iew.wb_penalized                        0                       # number of instrctions required to write to 'other' IQ
system.cpu0.iew.wb_rate                      0.598813                       # insts written-back per cycle
system.cpu0.iew.wb_fanout                    0.611505                       # average fanout of values written-back
system.cpu0.iew.wb_penalized_rate                   0                       # fraction of instructions written-back that wrote to 'other' IQ
system.cpu0.commit.commitSquashedInsts           7519                       # The number of squashed insts skipped by commit
system.cpu0.commit.commitNonSpecStalls            201                       # The number of times commit has been forced to stall to communicate backwards
system.cpu0.commit.branchMispredicts             1105                       # The number of times a branch was mispredicted
system.cpu0.commit.committed_per_cycle::samples       100915                       # Number of insts commited each cycle
system.cpu0.commit.committed_per_cycle::mean     0.806738                       # Number of insts commited each cycle
system.cpu0.commit.committed_per_cycle::stdev     1.671870                       # Number of insts commited each cycle
system.cpu0.commit.committed_per_cycle::underflows            0      0.00%      0.00% # Number of insts commited each cycle
system.cpu0.commit.committed_per_cycle::0        69065     68.44%     68.44% # Number of insts commited each cycle
system.cpu0.commit.committed_per_cycle::1        13748     13.62%     82.06% # Number of insts commited each cycle
system.cpu0.commit.committed_per_cycle::2         7298      7.23%     89.29% # Number of insts commited each cycle
[...]
system.cpu7.icache.overall_miss_latency::cpu7.inst      5124499                       # number of overall miss cycles
system.cpu7.icache.overall_miss_latency::total      5124499                       # number of overall miss cycles
system.cpu7.icache.ReadReq_accesses::cpu7.inst        13771                       # number of ReadReq accesses(hits+misses)
system.cpu7.icache.ReadReq_accesses::total        13771                       # number of ReadReq accesses(hits+misses)
system.cpu7.icache.demand_accesses::cpu7.inst        13771                       # number of demand (read+write) accesses
system.cpu7.icache.demand_accesses::total        13771                       # number of demand (read+write) accesses
system.cpu7.icache.overall_accesses::cpu7.inst        13771                       # number of overall (read+write) accesses
system.cpu7.icache.overall_accesses::total        13771                       # number of overall (read+write) accesses
system.cpu7.icache.ReadReq_miss_rate::cpu7.inst     0.005228                       # miss rate for ReadReq accesses
system.cpu7.icache.ReadReq_miss_rate::total     0.005228                       # miss rate for ReadReq accesses
system.cpu7.icache.demand_miss_rate::cpu7.inst     0.005228                       # miss rate for demand accesses
system.cpu7.icache.demand_miss_rate::total     0.005228                       # miss rate for demand accesses
system.cpu7.icache.overall_miss_rate::cpu7.inst     0.005228                       # miss rate for overall accesses
system.cpu7.icache.overall_miss_rate::total     0.005228                       # miss rate for overall accesses
system.cpu7.icache.ReadReq_avg_miss_latency::cpu7.inst 71173.597222                       # average ReadReq miss latency
system.cpu7.icache.ReadReq_avg_miss_latency::total 71173.597222                       # average ReadReq miss latency
system.cpu7.icache.demand_avg_miss_latency::cpu7.inst 71173.597222                       # average overall miss latency
system.cpu7.icache.demand_avg_miss_latency::total 71173.597222                       # average overall miss latency
system.cpu7.icache.overall_avg_miss_latency::cpu7.inst 71173.597222                       # average overall miss latency
system.cpu7.icache.overall_avg_miss_latency::total 71173.597222                       # average overall miss latency
system.cpu7.icache.blocked_cycles::no_mshrs         1925                       # number of cycles access was blocked
system.cpu7.icache.blocked_cycles::no_targets            0                       # number of cycles access was blocked
system.cpu7.icache.blocked::no_mshrs               14                       # number of cycles access was blocked
system.cpu7.icache.blocked::no_targets              0                       # number of cycles access was blocked
system.cpu7.icache.avg_blocked_cycles::no_mshrs   137.500000                       # average number of cycles each access was blocked
system.cpu7.icache.avg_blocked_cycles::no_targets          nan                       # average number of cycles each access was blocked
system.cpu7.icache.fast_writes                      0                       # number of fast writes performed
system.cpu7.icache.cache_copies                     0                       # number of cache copies performed
system.cpu7.icache.ReadReq_mshr_hits::cpu7.inst           16                       # number of ReadReq MSHR hits
system.cpu7.icache.ReadReq_mshr_hits::total           16                       # number of ReadReq MSHR hits
system.cpu7.icache.demand_mshr_hits::cpu7.inst           16                       # number of demand (read+write) MSHR hits
system.cpu7.icache.demand_mshr_hits::total           16                       # number of demand (read+write) MSHR hits
system.cpu7.icache.overall_mshr_hits::cpu7.inst           16                       # number of overall MSHR hits
system.cpu7.icache.overall_mshr_hits::total           16                       # number of overall MSHR hits
system.cpu7.icache.ReadReq_mshr_misses::cpu7.inst           56                       # number of ReadReq MSHR misses
system.cpu7.icache.ReadReq_mshr_misses::total           56                       # number of ReadReq MSHR misses
system.cpu7.icache.demand_mshr_misses::cpu7.inst           56                       # number of demand (read+write) MSHR misses
system.cpu7.icache.demand_mshr_misses::total           56                       # number of demand (read+write) MSHR misses
system.cpu7.icache.overall_mshr_misses::cpu7.inst           56                       # number of overall MSHR misses
system.cpu7.icache.overall_mshr_misses::total           56                       # number of overall MSHR misses
system.cpu7.icache.ReadReq_mshr_miss_latency::cpu7.inst      4301249                       # number of ReadReq MSHR miss cycles
system.cpu7.icache.ReadReq_mshr_miss_latency::total      4301249                       # number of ReadReq MSHR miss cycles
system.cpu7.icache.demand_mshr_miss_latency::cpu7.inst      4301249                       # number of demand (read+write) MSHR miss cycles
system.cpu7.icache.demand_mshr_miss_latency::total      4301249                       # number of demand (read+write) MSHR miss cycles
system.cpu7.icache.overall_mshr_miss_latency::cpu7.inst      4301249                       # number of overall MSHR miss cycles
system.cpu7.icache.overall_mshr_miss_latency::total      4301249                       # number of overall MSHR miss cycles
system.cpu7.icache.ReadReq_mshr_miss_rate::cpu7.inst     0.004067                       # mshr miss rate for ReadReq accesses
system.cpu7.icache.ReadReq_mshr_miss_rate::total     0.004067                       # mshr miss rate for ReadReq accesses
system.cpu7.icache.demand_mshr_miss_rate::cpu7.inst     0.004067                       # mshr miss rate for demand accesses
system.cpu7.icache.demand_mshr_miss_rate::total     0.004067                       # mshr miss rate for demand accesses
system.cpu7.icache.overall_mshr_miss_rate::cpu7.inst     0.004067                       # mshr miss rate for overall accesses
system.cpu7.icache.overall_mshr_miss_rate::total     0.004067                       # mshr miss rate for overall accesses
system.cpu7.icache.ReadReq_avg_mshr_miss_latency::cpu7.inst 76808.017857                       # average ReadReq mshr miss latency
system.cpu7.icache.ReadReq_avg_mshr_miss_latency::total 76808.017857                       # average ReadReq mshr miss latency
system.cpu7.icache.demand_avg_mshr_miss_latency::cpu7.inst 76808.017857                       # average overall mshr miss latency
system.cpu7.icache.demand_avg_mshr_miss_latency::total 76808.017857                       # average overall mshr miss latency
system.cpu7.icache.overall_avg_mshr_miss_latency::cpu7.inst 76808.017857                       # average overall mshr miss latency
system.cpu7.icache.overall_avg_mshr_miss_latency::total 76808.017857                       # average overall mshr miss latency
system.cpu7.icache.no_allocate_misses               0                       # Number of misses that were no-allocate
system.membus.trans_dist::ReadReq                2034                       # Transaction distribution
system.membus.trans_dist::ReadResp               2033                       # Transaction distribution
system.membus.trans_dist::Writeback                18                       # Transaction distribution
system.membus.trans_dist::UpgradeReq               15                       # Transaction distribution
system.membus.trans_dist::SCUpgradeReq             24                       # Transaction distribution
system.membus.trans_dist::UpgradeResp              39                       # Transaction distribution
system.membus.trans_dist::SCUpgradeFailReq            4                       # Transaction distribution
system.membus.trans_dist::UpgradeFailResp            4                       # Transaction distribution
system.membus.trans_dist::ReadExReq               505                       # Transaction distribution
system.membus.trans_dist::ReadExResp              505                       # Transaction distribution
system.membus.pkt_count_system.cpu0.icache.mem_side::system.mem_ctrls.port         1235                       # Packet count per connected master and slave (bytes)
system.membus.pkt_count_system.cpu0.dcache.mem_side::system.mem_ctrls.port         1146                       # Packet count per connected master and slave (bytes)
system.membus.pkt_count_system.cpu1.icache.mem_side::system.mem_ctrls.port          110                       # Packet count per connected master and slave (bytes)
system.membus.pkt_count_system.cpu1.dcache.mem_side::system.mem_ctrls.port          159                       # Packet count per connected master and slave (bytes)
system.membus.pkt_count_system.cpu2.icache.mem_side::system.mem_ctrls.port          108                       # Packet count per connected master and slave (bytes)
system.membus.pkt_count_system.cpu2.dcache.mem_side::system.mem_ctrls.port          158                       # Packet count per connected master and slave (bytes)
system.membus.pkt_count_system.cpu3.icache.mem_side::system.mem_ctrls.port          108                       # Packet count per connected master and slave (bytes)
system.membus.pkt_count_system.cpu3.dcache.mem_side::system.mem_ctrls.port          161                       # Packet count per connected master and slave (bytes)
system.membus.pkt_count_system.cpu4.icache.mem_side::system.mem_ctrls.port          114                       # Packet count per connected master and slave (bytes)
system.membus.pkt_count_system.cpu4.dcache.mem_side::system.mem_ctrls.port          167                       # Packet count per connected master and slave (bytes)
system.membus.pkt_count_system.cpu5.icache.mem_side::system.mem_ctrls.port          114                       # Packet count per connected master and slave (bytes)
system.membus.pkt_count_system.cpu5.dcache.mem_side::system.mem_ctrls.port          167                       # Packet count per connected master and slave (bytes)
system.membus.pkt_count_system.cpu6.icache.mem_side::system.mem_ctrls.port          112                       # Packet count per connected master and slave (bytes)
system.membus.pkt_count_system.cpu6.dcache.mem_side::system.mem_ctrls.port          161                       # Packet count per connected master and slave (bytes)
system.membus.pkt_count_system.cpu7.icache.mem_side::system.mem_ctrls.port          112                       # Packet count per connected master and slave (bytes)
system.membus.pkt_count_system.cpu7.dcache.mem_side::system.mem_ctrls.port          162                       # Packet count per connected master and slave (bytes)
system.membus.pkt_count::total                   4294                       # Packet count per connected master and slave (bytes)
system.membus.pkt_size_system.cpu0.icache.mem_side::system.mem_ctrls.port        39488                       # Cumulative packet size per connected master and slave (bytes)
system.membus.pkt_size_system.cpu0.dcache.mem_side::system.mem_ctrls.port        36544                       # Cumulative packet size per connected master and slave (bytes)
system.membus.pkt_size_system.cpu1.icache.mem_side::system.mem_ctrls.port         3520                       # Cumulative packet size per connected master and slave (bytes)
system.membus.pkt_size_system.cpu1.dcache.mem_side::system.mem_ctrls.port         1152                       # Cumulative packet size per connected master and slave (bytes)
system.membus.pkt_size_system.cpu2.icache.mem_side::system.mem_ctrls.port         3456                       # Cumulative packet size per connected master and slave (bytes)
system.membus.pkt_size_system.cpu2.dcache.mem_side::system.mem_ctrls.port         1152                       # Cumulative packet size per connected master and slave (bytes)
system.membus.pkt_size_system.cpu3.icache.mem_side::system.mem_ctrls.port         3456                       # Cumulative packet size per connected master and slave (bytes)
system.membus.pkt_size_system.cpu3.dcache.mem_side::system.mem_ctrls.port         1152                       # Cumulative packet size per connected master and slave (bytes)
system.membus.pkt_size_system.cpu4.icache.mem_side::system.mem_ctrls.port         3648                       # Cumulative packet size per connected master and slave (bytes)
system.membus.pkt_size_system.cpu4.dcache.mem_side::system.mem_ctrls.port         1152                       # Cumulative packet size per connected master and slave (bytes)
system.membus.pkt_size_system.cpu5.icache.mem_side::system.mem_ctrls.port         3648                       # Cumulative packet size per connected master and slave (bytes)
system.membus.pkt_size_system.cpu5.dcache.mem_side::system.mem_ctrls.port         1216                       # Cumulative packet size per connected master and slave (bytes)
system.membus.pkt_size_system.cpu6.icache.mem_side::system.mem_ctrls.port         3584                       # Cumulative packet size per connected master and slave (bytes)
system.membus.pkt_size_system.cpu6.dcache.mem_side::system.mem_ctrls.port         1152                       # Cumulative packet size per connected master and slave (bytes)
system.membus.pkt_size_system.cpu7.icache.mem_side::system.mem_ctrls.port         3584                       # Cumulative packet size per connected master and slave (bytes)
system.membus.pkt_size_system.cpu7.dcache.mem_side::system.mem_ctrls.port         1216                       # Cumulative packet size per connected master and slave (bytes)
system.membus.pkt_size::total                  109120                       # Cumulative packet size per connected master and slave (bytes)
system.membus.snoops                              887                       # Total snoops (count)
system.membus.snoop_fanout::samples              2600                       # Request fanout histogram
system.membus.snoop_fanout::mean                   15                       # Request fanout histogram
system.membus.snoop_fanout::stdev                   0                       # Request fanout histogram
system.membus.snoop_fanout::underflows              0      0.00%      0.00% # Request fanout histogram
system.membus.snoop_fanout::0                       0      0.00%      0.00% # Request fanout histogram
system.membus.snoop_fanout::1                       0      0.00%      0.00% # Request fanout histogram
system.membus.snoop_fanout::2                       0      0.00%      0.00% # Request fanout histogram
system.membus.snoop_fanout::3                       0      0.00%      0.00% # Request fanout histogram
system.membus.snoop_fanout::4                       0      0.00%      0.00% # Request fanout histogram
system.membus.snoop_fanout::5                       0      0.00%      0.00% # Request fanout histogram
system.membus.snoop_fanout::6                       0      0.00%      0.00% # Request fanout histogram
system.membus.snoop_fanout::7                       0      0.00%      0.00% # Request fanout histogram
system.membus.snoop_fanout::8                       0      0.00%      0.00% # Request fanout histogram
system.membus.snoop_fanout::9                       0      0.00%      0.00% # Request fanout histogram
system.membus.snoop_fanout::10                      0      0.00%      0.00% # Request fanout histogram
system.membus.snoop_fanout::11                      0      0.00%      0.00% # Request fanout histogram
system.membus.snoop_fanout::12                      0      0.00%      0.00% # Request fanout histogram
system.membus.snoop_fanout::13                      0      0.00%      0.00% # Request fanout histogram
system.membus.snoop_fanout::14                      0      0.00%      0.00% # Request fanout histogram
system.membus.snoop_fanout::15                   2600    100.00%    100.00% # Request fanout histogram
system.membus.snoop_fanout::16                      0      0.00%    100.00% # Request fanout histogram
system.membus.snoop_fanout::overflows               0      0.00%    100.00% # Request fanout histogram
system.membus.snoop_fanout::min_value              15                       # Request fanout histogram
system.membus.snoop_fanout::max_value              15                       # Request fanout histogram
system.membus.snoop_fanout::total                2600                       # Request fanout histogram
system.membus.reqLayer0.occupancy             3244499                       # Layer occupancy (ticks)
system.membus.reqLayer0.utilization               4.6                       # Layer utilization (%)
system.membus.respLayer1.occupancy            3285000                       # Layer occupancy (ticks)
system.membus.respLayer1.utilization              4.6                       # Layer utilization (%)
system.membus.respLayer2.occupancy            2990493                       # Layer occupancy (ticks)
system.membus.respLayer2.utilization              4.2                       # Layer utilization (%)
system.membus.respLayer5.occupancy             295500                       # Layer occupancy (ticks)
system.membus.respLayer5.utilization              0.4                       # Layer utilization (%)
system.membus.respLayer6.occupancy             702739                       # Layer occupancy (ticks)
system.membus.respLayer6.utilization              1.0                       # Layer utilization (%)
system.membus.respLayer9.occupancy             290250                       # Layer occupancy (ticks)
system.membus.respLayer9.utilization              0.4                       # Layer utilization (%)
system.membus.respLayer10.occupancy            701978                       # Layer occupancy (ticks)
system.membus.respLayer10.utilization             1.0                       # Layer utilization (%)
system.membus.respLayer13.occupancy            287250                       # Layer occupancy (ticks)
system.membus.respLayer13.utilization             0.4                       # Layer utilization (%)
system.membus.respLayer14.occupancy            719973                       # Layer occupancy (ticks)
system.membus.respLayer14.utilization             1.0                       # Layer utilization (%)
system.membus.respLayer17.occupancy            303000                       # Layer occupancy (ticks)
system.membus.respLayer17.utilization             0.4                       # Layer utilization (%)
system.membus.respLayer18.occupancy            749976                       # Layer occupancy (ticks)
system.membus.respLayer18.utilization             1.1                       # Layer utilization (%)
system.membus.respLayer21.occupancy            304250                       # Layer occupancy (ticks)
system.membus.respLayer21.utilization             0.4                       # Layer utilization (%)
system.membus.respLayer22.occupancy            741228                       # Layer occupancy (ticks)
system.membus.respLayer22.utilization             1.0                       # Layer utilization (%)
system.membus.respLayer25.occupancy            297750                       # Layer occupancy (ticks)
system.membus.respLayer25.utilization             0.4                       # Layer utilization (%)
system.membus.respLayer26.occupancy            719725                       # Layer occupancy (ticks)
system.membus.respLayer26.utilization             1.0                       # Layer utilization (%)
system.membus.respLayer29.occupancy            300000                       # Layer occupancy (ticks)
system.membus.respLayer29.utilization             0.4                       # Layer utilization (%)
system.membus.respLayer30.occupancy            701998                       # Layer occupancy (ticks)
system.membus.respLayer30.utilization             1.0                       # Layer utilization (%)

---------- End Simulation Statistics   ----------
