
---------- Begin Simulation Statistics ----------
sim_seconds                                  0.000185                       # Number of seconds simulated
sim_ticks                                   184724500                       # Number of ticks simulated
final_tick                                  184724500                       # Number of ticks from beginning of simulation (restored from checkpoints and never reset)
sim_freq                                 1000000000000                       # Frequency of simulated ticks
host_inst_rate                                 134702                       # Simulator instruction rate (inst/s)
host_op_rate                                   136602                       # Simulator op (including micro ops) rate (op/s)
host_tick_rate                               10811477                       # Simulator tick rate (ticks/s)
host_mem_usage                                 676888                       # Number of bytes of host memory used
host_seconds                                    17.09                       # Real time elapsed on the host
sim_insts                                     2301463                       # Number of instructions simulated
sim_ops                                       2333970                       # Number of ops (including micro ops) simulated
system.voltage_domain.voltage                       1                       # Voltage in Volts
system.clk_domain.clock                          1000                       # Clock period in ticks
system.mem_ctrls.bytes_read::cpu0.inst          39872                       # Number of bytes read from this memory
system.mem_ctrls.bytes_read::cpu0.data          89920                       # Number of bytes read from this memory
system.mem_ctrls.bytes_read::cpu1.inst           3136                       # Number of bytes read from this memory
system.mem_ctrls.bytes_read::cpu1.data           3200                       # Number of bytes read from this memory
system.mem_ctrls.bytes_read::cpu2.inst           3456                       # Number of bytes read from this memory
system.mem_ctrls.bytes_read::cpu2.data           2624                       # Number of bytes read from this memory
system.mem_ctrls.bytes_read::cpu3.inst           3520                       # Number of bytes read from this memory
system.mem_ctrls.bytes_read::cpu3.data           2496                       # Number of bytes read from this memory
system.mem_ctrls.bytes_read::cpu4.inst           3520                       # Number of bytes read from this memory
system.mem_ctrls.bytes_read::cpu4.data           2176                       # Number of bytes read from this memory
system.mem_ctrls.bytes_read::cpu5.inst           3584                       # Number of bytes read from this memory
system.mem_ctrls.bytes_read::cpu5.data           2880                       # Number of bytes read from this memory
system.mem_ctrls.bytes_read::cpu6.inst           3648                       # Number of bytes read from this memory
system.mem_ctrls.bytes_read::cpu6.data           2752                       # Number of bytes read from this memory
system.mem_ctrls.bytes_read::cpu7.inst           3584                       # Number of bytes read from this memory
system.mem_ctrls.bytes_read::cpu7.data           2176                       # Number of bytes read from this memory
system.mem_ctrls.bytes_read::total             172544                       # Number of bytes read from this memory
system.mem_ctrls.bytes_inst_read::cpu0.inst        39872                       # Number of instructions bytes read from this memory
system.mem_ctrls.bytes_inst_read::cpu1.inst         3136                       # Number of instructions bytes read from this memory
system.mem_ctrls.bytes_inst_read::cpu2.inst         3456                       # Number of instructions bytes read from this memory
system.mem_ctrls.bytes_inst_read::cpu3.inst         3520                       # Number of instructions bytes read from this memory
system.mem_ctrls.bytes_inst_read::cpu4.inst         3520                       # Number of instructions bytes read from this memory
system.mem_ctrls.bytes_inst_read::cpu5.inst         3584                       # Number of instructions bytes read from this memory
system.mem_ctrls.bytes_inst_read::cpu6.inst         3648                       # Number of instructions bytes read from this memory
system.mem_ctrls.bytes_inst_read::cpu7.inst         3584                       # Number of instructions bytes read from this memory
system.mem_ctrls.bytes_inst_read::total         64320                       # Number of instructions bytes read from this memory
system.mem_ctrls.bytes_written::writebacks        16192                       # Number of bytes written to this memory
system.mem_ctrls.bytes_written::total           16192                       # Number of bytes written to this memory
system.mem_ctrls.num_reads::cpu0.inst             623                       # Number of read requests responded to by this memory
system.mem_ctrls.num_reads::cpu0.data            1405                       # Number of read requests responded to by this memory
system.mem_ctrls.num_reads::cpu1.inst              49                       # Number of read requests responded to by this memory
system.mem_ctrls.num_reads::cpu1.data              50                       # Number of read requests responded to by this memory
system.mem_ctrls.num_reads::cpu2.inst              54                       # Number of read requests responded to by this memory
system.mem_ctrls.num_reads::cpu2.data              41                       # Number of read requests responded to by this memory
system.mem_ctrls.num_reads::cpu3.inst              55                       # Number of read requests responded to by this memory
system.mem_ctrls.num_reads::cpu3.data              39                       # Number of read requests responded to by this memory
system.mem_ctrls.num_reads::cpu4.inst              55                       # Number of read requests responded to by this memory
system.mem_ctrls.num_reads::cpu4.data              34                       # Number of read requests responded to by this memory
system.mem_ctrls.num_reads::cpu5.inst              56                       # Number of read requests responded to by this memory
system.mem_ctrls.num_reads::cpu5.data              45                       # Number of read requests responded to by this memory
system.mem_ctrls.num_reads::cpu6.inst              57                       # Number of read requests responded to by this memory
system.mem_ctrls.num_reads::cpu6.data              43                       # Number of read requests responded to by this memory
system.mem_ctrls.num_reads::cpu7.inst              56                       # Number of read requests responded to by this memory
system.mem_ctrls.num_reads::cpu7.data              34                       # Number of read requests responded to by this memory
system.mem_ctrls.num_reads::total                2696                       # Number of read requests responded to by this memory
system.mem_ctrls.num_writes::writebacks           253                       # Number of write requests responded to by this memory
system.mem_ctrls.num_writes::total                253                       # Number of write requests responded to by this memory
system.mem_ctrls.bw_read::cpu0.inst         215845759                       # Total read bandwidth from this memory (bytes/s)
system.mem_ctrls.bw_read::cpu0.data         486778960                       # Total read bandwidth from this memory (bytes/s)
system.mem_ctrls.bw_read::cpu1.inst          16976633                       # Total read bandwidth from this memory (bytes/s)
system.mem_ctrls.bw_read::cpu1.data          17323095                       # Total read bandwidth from this memory (bytes/s)
system.mem_ctrls.bw_read::cpu2.inst          18708942                       # Total read bandwidth from this memory (bytes/s)
system.mem_ctrls.bw_read::cpu2.data          14204938                       # Total read bandwidth from this memory (bytes/s)
system.mem_ctrls.bw_read::cpu3.inst          19055404                       # Total read bandwidth from this memory (bytes/s)
system.mem_ctrls.bw_read::cpu3.data          13512014                       # Total read bandwidth from this memory (bytes/s)
system.mem_ctrls.bw_read::cpu4.inst          19055404                       # Total read bandwidth from this memory (bytes/s)
system.mem_ctrls.bw_read::cpu4.data          11779704                       # Total read bandwidth from this memory (bytes/s)
system.mem_ctrls.bw_read::cpu5.inst          19401866                       # Total read bandwidth from this memory (bytes/s)
system.mem_ctrls.bw_read::cpu5.data          15590785                       # Total read bandwidth from this memory (bytes/s)
system.mem_ctrls.bw_read::cpu6.inst          19748328                       # Total read bandwidth from this memory (bytes/s)
system.mem_ctrls.bw_read::cpu6.data          14897861                       # Total read bandwidth from this memory (bytes/s)
system.mem_ctrls.bw_read::cpu7.inst          19401866                       # Total read bandwidth from this memory (bytes/s)
system.mem_ctrls.bw_read::cpu7.data          11779704                       # Total read bandwidth from this memory (bytes/s)
system.mem_ctrls.bw_read::total             934061264                       # Total read bandwidth from this memory (bytes/s)
system.mem_ctrls.bw_inst_read::cpu0.inst    215845759                       # Instruction read bandwidth from this memory (bytes/s)
system.mem_ctrls.bw_inst_read::cpu1.inst     16976633                       # Instruction read bandwidth from this memory (bytes/s)
system.mem_ctrls.bw_inst_read::cpu2.inst     18708942                       # Instruction read bandwidth from this memory (bytes/s)
system.mem_ctrls.bw_inst_read::cpu3.inst     19055404                       # Instruction read bandwidth from this memory (bytes/s)
system.mem_ctrls.bw_inst_read::cpu4.inst     19055404                       # Instruction read bandwidth from this memory (bytes/s)
system.mem_ctrls.bw_inst_read::cpu5.inst     19401866                       # Instruction read bandwidth from this memory (bytes/s)
system.mem_ctrls.bw_inst_read::cpu6.inst     19748328                       # Instruction read bandwidth from this memory (bytes/s)
system.mem_ctrls.bw_inst_read::cpu7.inst     19401866                       # Instruction read bandwidth from this memory (bytes/s)
system.mem_ctrls.bw_inst_read::total        348194203                       # Instruction read bandwidth from this memory (bytes/s)
system.mem_ctrls.bw_write::writebacks        87654859                       # Write bandwidth from this memory (bytes/s)
system.mem_ctrls.bw_write::total             87654859                       # Write bandwidth from this memory (bytes/s)
system.mem_ctrls.bw_total::writebacks        87654859                       # Total bandwidth to/from this memory (bytes/s)
system.mem_ctrls.bw_total::cpu0.inst        215845759                       # Total bandwidth to/from this memory (bytes/s)
system.mem_ctrls.bw_total::cpu0.data        486778960                       # Total bandwidth to/from this memory (bytes/s)
system.mem_ctrls.bw_total::cpu1.inst         16976633                       # Total bandwidth to/from this memory (bytes/s)
system.mem_ctrls.bw_total::cpu1.data         17323095                       # Total bandwidth to/from this memory (bytes/s)
system.mem_ctrls.bw_total::cpu2.inst         18708942                       # Total bandwidth to/from this memory (bytes/s)
system.mem_ctrls.bw_total::cpu2.data         14204938                       # Total bandwidth to/from this memory (bytes/s)
system.mem_ctrls.bw_total::cpu3.inst         19055404                       # Total bandwidth to/from this memory (bytes/s)
system.mem_ctrls.bw_total::cpu3.data         13512014                       # Total bandwidth to/from this memory (bytes/s)
system.mem_ctrls.bw_total::cpu4.inst         19055404                       # Total bandwidth to/from this memory (bytes/s)
system.mem_ctrls.bw_total::cpu4.data         11779704                       # Total bandwidth to/from this memory (bytes/s)
system.mem_ctrls.bw_total::cpu5.inst         19401866                       # Total bandwidth to/from this memory (bytes/s)
system.mem_ctrls.bw_total::cpu5.data         15590785                       # Total bandwidth to/from this memory (bytes/s)
system.mem_ctrls.bw_total::cpu6.inst         19748328                       # Total bandwidth to/from this memory (bytes/s)
system.mem_ctrls.bw_total::cpu6.data         14897861                       # Total bandwidth to/from this memory (bytes/s)
system.mem_ctrls.bw_total::cpu7.inst         19401866                       # Total bandwidth to/from this memory (bytes/s)
system.mem_ctrls.bw_total::cpu7.data         11779704                       # Total bandwidth to/from this memory (bytes/s)
system.mem_ctrls.bw_total::total           1021716123                       # Total bandwidth to/from this memory (bytes/s)
system.mem_ctrls.readReqs                        2697                       # Number of read requests accepted
system.mem_ctrls.writeReqs                        253                       # Number of write requests accepted
system.mem_ctrls.readBursts                      2697                       # Number of DRAM read bursts, including those serviced by the write queue
system.mem_ctrls.writeBursts                      253                       # Number of DRAM write bursts, including those merged in the write queue
system.mem_ctrls.bytesReadDRAM                 166848                       # Total number of bytes read from DRAM
system.mem_ctrls.bytesReadWrQ                    5760                       # Total number of bytes read from write queue
system.mem_ctrls.bytesWritten                   14592                       # Total number of bytes written to DRAM
system.mem_ctrls.bytesReadSys                  172608                       # Total read bytes from the system interface side
system.mem_ctrls.bytesWrittenSys                16192                       # Total written bytes from the system interface side
system.mem_ctrls.servicedByWrQ                     90                       # Number of DRAM read bursts serviced by the write queue
system.mem_ctrls.mergedWrBursts                     7                       # Number of DRAM write bursts merged with an existing one
system.mem_ctrls.neitherReadNorWriteReqs            7                       # Number of requests that are neither read nor write
system.mem_ctrls.perBankRdBursts::0               222                       # Per bank write bursts
system.mem_ctrls.perBankRdBursts::1               404                       # Per bank write bursts
system.mem_ctrls.perBankRdBursts::2               222                       # Per bank write bursts
system.mem_ctrls.perBankRdBursts::3               284                       # Per bank write bursts
system.mem_ctrls.perBankRdBursts::4               185                       # Per bank write bursts
system.mem_ctrls.perBankRdBursts::5               196                       # Per bank write bursts
system.mem_ctrls.perBankRdBursts::6               286                       # Per bank write bursts
system.mem_ctrls.perBankRdBursts::7               197                       # Per bank write bursts
system.mem_ctrls.perBankRdBursts::8               151                       # Per bank write bursts
system.mem_ctrls.perBankRdBursts::9               165                       # Per bank write bursts
system.mem_ctrls.perBankRdBursts::10               79                       # Per bank write bursts
system.mem_ctrls.perBankRdBursts::11               15                       # Per bank write bursts
system.mem_ctrls.perBankRdBursts::12                8                       # Per bank write bursts
system.mem_ctrls.perBankRdBursts::13               40                       # Per bank write bursts
system.mem_ctrls.perBankRdBursts::14               39                       # Per bank write bursts
system.mem_ctrls.perBankRdBursts::15              114                       # Per bank write bursts
system.mem_ctrls.perBankWrBursts::0                 6                       # Per bank write bursts
system.mem_ctrls.perBankWrBursts::1                24                       # Per bank write bursts
system.mem_ctrls.perBankWrBursts::2                13                       # Per bank write bursts
system.mem_ctrls.perBankWrBursts::3                48                       # Per bank write bursts
system.mem_ctrls.perBankWrBursts::4                 8                       # Per bank write bursts
system.mem_ctrls.perBankWrBursts::5                16                       # Per bank write bursts
system.mem_ctrls.perBankWrBursts::6                 7                       # Per bank write bursts
system.mem_ctrls.perBankWrBursts::7                27                       # Per bank write bursts
system.mem_ctrls.perBankWrBursts::8                 8                       # Per bank write bursts
system.mem_ctrls.perBankWrBursts::9                33                       # Per bank write bursts
system.mem_ctrls.perBankWrBursts::10                6                       # Per bank write bursts
system.mem_ctrls.perBankWrBursts::11                0                       # Per bank write bursts
system.mem_ctrls.perBankWrBursts::12                0                       # Per bank write bursts
system.mem_ctrls.perBankWrBursts::13                0                       # Per bank write bursts
system.mem_ctrls.perBankWrBursts::14                0                       # Per bank write bursts
system.mem_ctrls.perBankWrBursts::15               32                       # Per bank write bursts
system.mem_ctrls.numRdRetry                         0                       # Number of times read queue was full causing retry
system.mem_ctrls.numWrRetry                         0                       # Number of times write queue was full causing retry
system.mem_ctrls.totGap                     184722000                       # Total gap between requests
system.mem_ctrls.readPktSize::0                     0                       # Read request sizes (log2)
system.mem_ctrls.readPktSize::1                     0                       # Read request sizes (log2)
system.mem_ctrls.readPktSize::2                     0                       # Read request sizes (log2)
system.mem_ctrls.readPktSize::3                     0                       # Read request sizes (log2)
system.mem_ctrls.readPktSize::4                     0                       # Read request sizes (log2)
system.mem_ctrls.readPktSize::5                     0                       # Read request sizes (log2)
system.mem_ctrls.readPktSize::6                  2697                       # Read request sizes (log2)
system.mem_ctrls.writePktSize::0                    0                       # Write request sizes (log2)
system.mem_ctrls.writePktSize::1                    0                       # Write request sizes (log2)
system.mem_ctrls.writePktSize::2                    0                       # Write request sizes (log2)
system.mem_ctrls.writePktSize::3                    0                       # Write request sizes (log2)
system.mem_ctrls.writePktSize::4                    0                       # Write request sizes (log2)
system.mem_ctrls.writePktSize::5                    0                       # Write request sizes (log2)
system.mem_ctrls.writePktSize::6                  253                       # Write request sizes (log2)
system.mem_ctrls.rdQLenPdf::0                    1688                       # What read queue length does an incoming req see
system.mem_ctrls.rdQLenPdf::1                     349                       # What read queue length does an incoming req see
system.mem_ctrls.rdQLenPdf::2                     126                       # What read queue length does an incoming req see
system.mem_ctrls.rdQLenPdf::3                      74                       # What read queue length does an incoming req see
system.mem_ctrls.rdQLenPdf::4                      52                       # What read queue length does an incoming req see
system.mem_ctrls.rdQLenPdf::5                      54                       # What read queue length does an incoming req see
system.mem_ctrls.rdQLenPdf::6                      45                       # What read queue length does an incoming req see
system.mem_ctrls.rdQLenPdf::7                      56                       # What read queue length does an incoming req see
system.mem_ctrls.rdQLenPdf::8                      50                       # What read queue length does an incoming req see
system.mem_ctrls.rdQLenPdf::9                      40                       # What read queue length does an incoming req see
system.mem_ctrls.rdQLenPdf::10                     29                       # What read queue length does an incoming req see
system.mem_ctrls.rdQLenPdf::11                     22                       # What read queue length does an incoming req see
system.mem_ctrls.rdQLenPdf::12                     11                       # What read queue length does an incoming req see
system.mem_ctrls.rdQLenPdf::13                      8                       # What read queue length does an incoming req see
system.mem_ctrls.rdQLenPdf::14                      2                       # What read queue length does an incoming req see
system.mem_ctrls.rdQLenPdf::15                      1                       # What read queue length does an incoming req see
system.mem_ctrls.rdQLenPdf::16                      0                       # What read queue length does an incoming req see
system.mem_ctrls.rdQLenPdf::17                      0                       # What read queue length does an incoming req see
system.mem_ctrls.rdQLenPdf::18                      0                       # What read queue length does an incoming req see
system.mem_ctrls.rdQLenPdf::19                      0                       # What read queue length does an incoming req see
system.mem_ctrls.rdQLenPdf::20                      0                       # What read queue length does an incoming req see
system.mem_ctrls.rdQLenPdf::21                      0                       # What read queue length does an incoming req see
system.mem_ctrls.rdQLenPdf::22                      0                       # What read queue length does an incoming req see
system.mem_ctrls.rdQLenPdf::23                      0                       # What read queue length does an incoming req see
system.mem_ctrls.rdQLenPdf::24                      0                       # What read queue length does an incoming req see
system.mem_ctrls.rdQLenPdf::25                      0                       # What read queue length does an incoming req see
system.mem_ctrls.rdQLenPdf::26                      0                       # What read queue length does an incoming req see
system.mem_ctrls.rdQLenPdf::27                      0                       # What read queue length does an incoming req see
system.mem_ctrls.rdQLenPdf::28                      0                       # What read queue length does an incoming req see
system.mem_ctrls.rdQLenPdf::29                      0                       # What read queue length does an incoming req see
system.mem_ctrls.rdQLenPdf::30                      0                       # What read queue length does an incoming req see
system.mem_ctrls.rdQLenPdf::31                      0                       # What read queue length does an incoming req see
system.mem_ctrls.wrQLenPdf::0                       1                       # What write queue length does an incoming req see
system.mem_ctrls.wrQLenPdf::1                       1                       # What write queue length does an incoming req see
system.mem_ctrls.wrQLenPdf::2                       1                       # What write queue length does an incoming req see
system.mem_ctrls.wrQLenPdf::3                       1                       # What write queue length does an incoming req see
system.mem_ctrls.wrQLenPdf::4                       1                       # What write queue length does an incoming req see
system.mem_ctrls.wrQLenPdf::5                       1                       # What write queue length does an incoming req see
system.mem_ctrls.wrQLenPdf::6                       1                       # What write queue length does an incoming req see
system.mem_ctrls.wrQLenPdf::7                       1                       # What write queue length does an incoming req see
system.mem_ctrls.wrQLenPdf::8                       1                       # What write queue length does an incoming req see
system.mem_ctrls.wrQLenPdf::9                       1                       # What write queue length does an incoming req see
system.mem_ctrls.wrQLenPdf::10                      1                       # What write queue length does an incoming req see
system.mem_ctrls.wrQLenPdf::11                      1                       # What write queue length does an incoming req see
system.mem_ctrls.wrQLenPdf::12                      1                       # What write queue length does an incoming req see
system.mem_ctrls.wrQLenPdf::13                      1                       # What write queue length does an incoming req see
system.mem_ctrls.wrQLenPdf::14                      1                       # What write queue length does an incoming req see
system.mem_ctrls.wrQLenPdf::15                      2                       # What write queue length does an incoming req see
system.mem_ctrls.wrQLenPdf::16                      3                       # What write queue length does an incoming req see
system.mem_ctrls.wrQLenPdf::17                     14                       # What write queue length does an incoming req see
system.mem_ctrls.wrQLenPdf::18                     14                       # What write queue length does an incoming req see
system.mem_ctrls.wrQLenPdf::19                     14                       # What write queue length does an incoming req see
system.mem_ctrls.wrQLenPdf::20                     14                       # What write queue length does an incoming req see
system.mem_ctrls.wrQLenPdf::21                     15                       # What write queue length does an incoming req see
system.mem_ctrls.wrQLenPdf::22                     14                       # What write queue length does an incoming req see
system.mem_ctrls.wrQLenPdf::23                     14                       # What write queue length does an incoming req see
system.mem_ctrls.wrQLenPdf::24                     14                       # What write queue length does an incoming req see
system.mem_ctrls.wrQLenPdf::25                     14                       # What write queue length does an incoming req see
system.mem_ctrls.wrQLenPdf::26                     14                       # What write queue length does an incoming req see
system.mem_ctrls.wrQLenPdf::27                     15                       # What write queue length does an incoming req see
system.mem_ctrls.wrQLenPdf::28                     14                       # What write queue length does an incoming req see
system.mem_ctrls.wrQLenPdf::29                     14                       # What write queue length does an incoming req see
system.mem_ctrls.wrQLenPdf::30                     14                       # What write queue length does an incoming req see
system.mem_ctrls.wrQLenPdf::31                     14                       # What write queue length does an incoming req see
system.mem_ctrls.wrQLenPdf::32                     14                       # What write queue length does an incoming req see
system.mem_ctrls.wrQLenPdf::33                      0                       # What write queue length does an incoming req see
system.mem_ctrls.wrQLenPdf::34                      0                       # What write queue length does an incoming req see
system.mem_ctrls.wrQLenPdf::35                      0                       # What write queue length does an incoming req see
system.mem_ctrls.wrQLenPdf::36                      0                       # What write queue length does an incoming req see
system.mem_ctrls.wrQLenPdf::37                      0                       # What write queue length does an incoming req see
system.mem_ctrls.wrQLenPdf::38                      0                       # What write queue length does an incoming req see
system.mem_ctrls.wrQLenPdf::39                      0                       # What write queue length does an incoming req see
system.mem_ctrls.wrQLenPdf::40                      0                       # What write queue length does an incoming req see
system.mem_ctrls.wrQLenPdf::41                      0                       # What write queue length does an incoming req see
system.mem_ctrls.wrQLenPdf::42                      0                       # What write queue length does an incoming req see
system.mem_ctrls.wrQLenPdf::43                      0                       # What write queue length does an incoming req see
system.mem_ctrls.wrQLenPdf::44                      0                       # What write queue length does an incoming req see
system.mem_ctrls.wrQLenPdf::45                      0                       # What write queue length does an incoming req see
system.mem_ctrls.wrQLenPdf::46                      0                       # What write queue length does an incoming req see
system.mem_ctrls.wrQLenPdf::47                      0                       # What write queue length does an incoming req see
system.mem_ctrls.wrQLenPdf::48                      0                       # What write queue length does an incoming req see
system.mem_ctrls.wrQLenPdf::49                      0                       # What write queue length does an incoming req see
system.mem_ctrls.wrQLenPdf::50                      0                       # What write queue length does an incoming req see
system.mem_ctrls.wrQLenPdf::51                      0                       # What write queue length does an incoming req see
system.mem_ctrls.wrQLenPdf::52                      0                       # What write queue length does an incoming req see
system.mem_ctrls.wrQLenPdf::53                      0                       # What write queue length does an incoming req see
system.mem_ctrls.wrQLenPdf::54                      0                       # What write queue length does an incoming req see
system.mem_ctrls.wrQLenPdf::55                      0                       # What write queue length does an incoming req see
system.mem_ctrls.wrQLenPdf::56                      0                       # What write queue length does an incoming req see
system.mem_ctrls.wrQLenPdf::57                      0                       # What write queue length does an incoming req see
system.mem_ctrls.wrQLenPdf::58                      0                       # What write queue length does an incoming req see
system.mem_ctrls.wrQLenPdf::59                      0                       # What write queue length does an incoming req see
system.mem_ctrls.wrQLenPdf::60                      0                       # What write queue length does an incoming req see
system.mem_ctrls.wrQLenPdf::61                      0                       # What write queue length does an incoming req see
system.mem_ctrls.wrQLenPdf::62                      0                       # What write queue length does an incoming req see
system.mem_ctrls.wrQLenPdf::63                      0                       # What write queue length does an incoming req see
system.mem_ctrls.bytesPerActivate::samples          467                       # Bytes accessed per row activation
system.mem_ctrls.bytesPerActivate::mean    382.492505                       # Bytes accessed per row activation
system.mem_ctrls.bytesPerActivate::gmean   217.899761                       # Bytes accessed per row activation
system.mem_ctrls.bytesPerActivate::stdev   375.303422                       # Bytes accessed per row activation
system.mem_ctrls.bytesPerActivate::0-127          163     34.90%     34.90% # Bytes accessed per row activation
system.mem_ctrls.bytesPerActivate::128-255           86     18.42%     53.32% # Bytes accessed per row activation
system.mem_ctrls.bytesPerActivate::256-383           44      9.42%     62.74% # Bytes accessed per row activation
system.mem_ctrls.bytesPerActivate::384-511           31      6.64%     69.38% # Bytes accessed per row activation
system.mem_ctrls.bytesPerActivate::512-639           21      4.50%     73.88% # Bytes accessed per row activation
system.mem_ctrls.bytesPerActivate::640-767           13      2.78%     76.66% # Bytes accessed per row activation
system.mem_ctrls.bytesPerActivate::768-895            8      1.71%     78.37% # Bytes accessed per row activation
system.mem_ctrls.bytesPerActivate::896-1023            7      1.50%     79.87% # Bytes accessed per row activation
system.mem_ctrls.bytesPerActivate::1024-1151           94     20.13%    100.00% # Bytes accessed per row activation
system.mem_ctrls.bytesPerActivate::total          467                       # Bytes accessed per row activation
system.mem_ctrls.rdPerTurnAround::samples           14                       # Reads before turning the bus around for writes
system.mem_ctrls.rdPerTurnAround::mean            185                       # Reads before turning the bus around for writes
system.mem_ctrls.rdPerTurnAround::gmean     79.836497                       # Reads before turning the bus around for writes
system.mem_ctrls.rdPerTurnAround::stdev    316.497175                       # Reads before turning the bus around for writes
system.mem_ctrls.rdPerTurnAround::0-63              6     42.86%     42.86% # Reads before turning the bus around for writes
system.mem_ctrls.rdPerTurnAround::64-127            3     21.43%     64.29% # Reads before turning the bus around for writes
system.mem_ctrls.rdPerTurnAround::128-191            1      7.14%     71.43% # Reads before turning the bus around for writes
system.mem_ctrls.rdPerTurnAround::192-255            2     14.29%     85.71% # Reads before turning the bus around for writes
system.mem_ctrls.rdPerTurnAround::320-383            1      7.14%     92.86% # Reads before turning the bus around for writes
system.mem_ctrls.rdPerTurnAround::1216-1279            1      7.14%    100.00% # Reads before turning the bus around for writes
system.mem_ctrls.rdPerTurnAround::total            14                       # Reads before turning the bus around for writes
system.mem_ctrls.wrPerTurnAround::samples           14                       # Writes before turning the bus around for reads
system.mem_ctrls.wrPerTurnAround::mean      16.285714                       # Writes before turning the bus around for reads
system.mem_ctrls.wrPerTurnAround::gmean     16.271496                       # Writes before turning the bus around for reads
system.mem_ctrls.wrPerTurnAround::stdev      0.726273                       # Writes before turning the bus around for reads
system.mem_ctrls.wrPerTurnAround::16               12     85.71%     85.71% # Writes before turning the bus around for reads
system.mem_ctrls.wrPerTurnAround::18                2     14.29%    100.00% # Writes before turning the bus around for reads
system.mem_ctrls.wrPerTurnAround::total            14                       # Writes before turning the bus around for reads
system.mem_ctrls.totQLat                     38964250                       # Total ticks spent queuing
system.mem_ctrls.totMemAccLat                87845500                       # Total ticks spent from burst creation until serviced by the DRAM
system.mem_ctrls.totBusLat                   13035000                       # Total ticks spent in databus transfers
system.mem_ctrls.avgQLat                     14946.01                       # Average queueing delay per DRAM burst
system.mem_ctrls.avgBusLat                    5000.00                       # Average bus latency per DRAM burst
system.mem_ctrls.avgMemAccLat                33696.01                       # Average memory access latency per DRAM burst
system.mem_ctrls.avgRdBW                       903.23                       # Average DRAM read bandwidth in MiByte/s
system.mem_ctrls.avgWrBW                        78.99                       # Average achieved write bandwidth in MiByte/s
system.mem_ctrls.avgRdBWSys                    934.41                       # Average system read bandwidth in MiByte/s
system.mem_ctrls.avgWrBWSys                     87.65                       # Average system write bandwidth in MiByte/s
system.mem_ctrls.peakBW                      12800.00                       # Theoretical peak bandwidth in MiByte/s
system.mem_ctrls.busUtil                         7.67                       # Data bus utilization in percentage
system.mem_ctrls.busUtilRead                     7.06                       # Data bus utilization in percentage for reads
system.mem_ctrls.busUtilWrite                    0.62                       # Data bus utilization in percentage for writes
system.mem_ctrls.avgRdQLen                       1.35                       # Average read queue length when enqueuing
system.mem_ctrls.avgWrQLen                      18.31                       # Average write queue length when enqueuing
system.mem_ctrls.readRowHits                     2161                       # Number of row buffer hits during reads
system.mem_ctrls.writeRowHits                     193                       # Number of row buffer hits during writes
system.mem_ctrls.readRowHitRate                 82.89                       # Row buffer hit rate for reads
system.mem_ctrls.writeRowHitRate                78.46                       # Row buffer hit rate for writes
system.mem_ctrls.avgGap                      62617.63                       # Average gap between requests
system.mem_ctrls.pageHitRate                    82.51                       # Row buffer hit rate, read and write combined
system.mem_ctrls_0.actEnergy                  2744280                       # Energy for activate commands per rank (pJ)
system.mem_ctrls_0.preEnergy                  1497375                       # Energy for precharge commands per rank (pJ)
system.mem_ctrls_0.readEnergy                15022800                       # Energy for read commands per rank (pJ)
system.mem_ctrls_0.writeEnergy                 907200                       # Energy for write commands per rank (pJ)
system.mem_ctrls_0.refreshEnergy             11696880                       # Energy for refresh commands per rank (pJ)
system.mem_ctrls_0.actBackEnergy            104564790                       # Energy for active background per rank (pJ)
system.mem_ctrls_0.preBackEnergy             15882750                       # Energy for precharge background per rank (pJ)
system.mem_ctrls_0.totalEnergy              152316075                       # Total energy per rank (pJ)
system.mem_ctrls_0.averagePower            849.296811                       # Core power per rank (mW)
system.mem_ctrls_0.memoryStateTime::IDLE     27074000                       # Time in different power states
system.mem_ctrls_0.memoryStateTime::REF       5980000                       # Time in different power states
system.mem_ctrls_0.memoryStateTime::PRE_PDN            0                       # Time in different power states
system.mem_ctrls_0.memoryStateTime::ACT     147678000                       # Time in different power states
system.mem_ctrls_0.memoryStateTime::ACT_PDN            0                       # Time in different power states
system.mem_ctrls_1.actEnergy                   635040                       # Energy for activate commands per rank (pJ)
system.mem_ctrls_1.preEnergy                   346500                       # Energy for precharge commands per rank (pJ)
system.mem_ctrls_1.readEnergy                 4391400                       # Energy for read commands per rank (pJ)
system.mem_ctrls_1.writeEnergy                 466560                       # Energy for write commands per rank (pJ)
system.mem_ctrls_1.refreshEnergy             11696880                       # Energy for refresh commands per rank (pJ)
system.mem_ctrls_1.actBackEnergy             79950195                       # Energy for active background per rank (pJ)
system.mem_ctrls_1.preBackEnergy             37474500                       # Energy for precharge background per rank (pJ)
system.mem_ctrls_1.totalEnergy              134961075                       # Total energy per rank (pJ)
system.mem_ctrls_1.averagePower            752.527339                       # Core power per rank (mW)
system.mem_ctrls_1.memoryStateTime::IDLE     63388000                       # Time in different power states
system.mem_ctrls_1.memoryStateTime::REF       5980000                       # Time in different power states
system.mem_ctrls_1.memoryStateTime::PRE_PDN            0                       # Time in different power states
system.mem_ctrls_1.memoryStateTime::ACT     111601000                       # Time in different power states
system.mem_ctrls_1.memoryStateTime::ACT_PDN            0                       # Time in different power states
system.cpu0.branchPred.lookups                  36113                       # Number of BP lookups
system.cpu0.branchPred.condPredicted            33556                       # Number of conditional branches predicted
system.cpu0.branchPred.condIncorrect             1785                       # Number of conditional branches incorrect
system.cpu0.branchPred.BTBLookups               29137                       # Number of BTB lookups
system.cpu0.branchPred.BTBHits                  28315                       # Number of BTB hits
system.cpu0.branchPred.BTBCorrect                   0                       # Number of correct BTB predictions (this stat may not work properly.
system.cpu0.branchPred.BTBHitPct            97.178845                       # BTB Hit Percentage
system.cpu0.branchPred.usedRAS                    864                       # Number of times the RAS was used to get a target.
system.cpu0.branchPred.RASInCorrect                 7                       # Number of incorrect RAS predictions.
system.cpu_voltage_domain.voltage                   1                       # Voltage in Volts
system.cpu_clk_domain.clock                       500                       # Clock period in ticks
system.cpu0.dstage2_mmu.stage2_tlb.walker.walks            0                       # Table walker walks requested
system.cpu0.dstage2_mmu.stage2_tlb.walker.walkRequestOrigin_Requested::Data            0                       # Table walker requests started/completed, data/inst
system.cpu0.dstage2_mmu.stage2_tlb.walker.walkRequestOrigin_Requested::Inst            0                       # Table walker requests started/completed, data/inst
system.cpu0.dstage2_mmu.stage2_tlb.walker.walkRequestOrigin_Requested::total            0                       # Table walker requests started/completed, data/inst
system.cpu0.dstage2_mmu.stage2_tlb.walker.walkRequestOrigin_Completed::Data            0                       # Table walker requests started/completed, data/inst
system.cpu0.dstage2_mmu.stage2_tlb.walker.walkRequestOrigin_Completed::Inst            0                       # Table walker requests started/completed, data/inst
system.cpu0.dstage2_mmu.stage2_tlb.walker.walkRequestOrigin_Completed::total            0                       # Table walker requests started/completed, data/inst
system.cpu0.dstage2_mmu.stage2_tlb.walker.walkRequestOrigin::total            0                       # Table walker requests started/completed, data/inst
system.cpu0.dstage2_mmu.stage2_tlb.inst_hits            0                       # ITB inst hits
system.cpu0.dstage2_mmu.stage2_tlb.inst_misses            0                       # ITB inst misses
system.cpu0.dstage2_mmu.stage2_tlb.read_hits            0                       # DTB read hits
system.cpu0.dstage2_mmu.stage2_tlb.read_misses            0                       # DTB read misses
system.cpu0.dstage2_mmu.stage2_tlb.write_hits            0                       # DTB write hits
system.cpu0.dstage2_mmu.stage2_tlb.write_misses            0                       # DTB write misses
system.cpu0.dstage2_mmu.stage2_tlb.flush_tlb            0                       # Number of times complete TLB was flushed
system.cpu0.dstage2_mmu.stage2_tlb.flush_tlb_mva            0                       # Number of times TLB was flushed by MVA
system.cpu0.dstage2_mmu.stage2_tlb.flush_tlb_mva_asid            0                       # Number of times TLB was flushed by MVA & ASID
system.cpu0.dstage2_mmu.stage2_tlb.flush_tlb_asid            0                       # Number of times TLB was flushed by ASID
system.cpu0.dstage2_mmu.stage2_tlb.flush_entries            0                       # Number of entries that have been flushed from TLB
system.cpu0.dstage2_mmu.stage2_tlb.align_faults            0                       # Number of TLB faults due to alignment restrictions
system.cpu0.dstage2_mmu.stage2_tlb.prefetch_faults            0                       # Number of TLB faults due to prefetch
system.cpu0.dstage2_mmu.stage2_tlb.domain_faults            0                       # Number of TLB faults due to domain restrictions
system.cpu0.dstage2_mmu.stage2_tlb.perms_faults            0                       # Number of TLB faults due to permissions restrictions
system.cpu0.dstage2_mmu.stage2_tlb.read_accesses            0                       # DTB read accesses
system.cpu0.dstage2_mmu.stage2_tlb.write_accesses            0                       # DTB write accesses
system.cpu0.dstage2_mmu.stage2_tlb.inst_accesses            0                       # ITB inst accesses
system.cpu0.dstage2_mmu.stage2_tlb.hits             0                       # DTB hits
system.cpu0.dstage2_mmu.stage2_tlb.misses            0                       # DTB misses
system.cpu0.dstage2_mmu.stage2_tlb.accesses            0                       # DTB accesses
system.cpu0.dtb.walker.walks                        0                       # Table walker walks requested
system.cpu0.dtb.walker.walkRequestOrigin_Requested::Data            0                       # Table walker requests started/completed, data/inst
system.cpu0.dtb.walker.walkRequestOrigin_Requested::Inst            0                       # Table walker requests started/completed, data/inst
system.cpu0.dtb.walker.walkRequestOrigin_Requested::total            0                       # Table walker requests started/completed, data/inst
system.cpu0.dtb.walker.walkRequestOrigin_Completed::Data            0                       # Table walker requests started/completed, data/inst
system.cpu0.dtb.walker.walkRequestOrigin_Completed::Inst            0                       # Table walker requests started/completed, data/inst
system.cpu0.dtb.walker.walkRequestOrigin_Completed::total            0                       # Table walker requests started/completed, data/inst
system.cpu0.dtb.walker.walkRequestOrigin::total            0                       # Table walker requests started/completed, data/inst
system.cpu0.dtb.inst_hits                           0                       # ITB inst hits
system.cpu0.dtb.inst_misses                         0                       # ITB inst misses
system.cpu0.dtb.read_hits                           0                       # DTB read hits
system.cpu0.dtb.read_misses                         0                       # DTB read misses
system.cpu0.dtb.write_hits                          0                       # DTB write hits
system.cpu0.dtb.write_misses                        0                       # DTB write misses
system.cpu0.dtb.flush_tlb                           0                       # Number of times complete TLB was flushed
system.cpu0.dtb.flush_tlb_mva                       0                       # Number of times TLB was flushed by MVA
system.cpu0.dtb.flush_tlb_mva_asid                  0                       # Number of times TLB was flushed by MVA & ASID
system.cpu0.dtb.flush_tlb_asid                      0                       # Number of times TLB was flushed by ASID
system.cpu0.dtb.flush_entries                       0                       # Number of entries that have been flushed from TLB
system.cpu0.dtb.align_faults                        0                       # Number of TLB faults due to alignment restrictions
system.cpu0.dtb.prefetch_faults                     0                       # Number of TLB faults due to prefetch
system.cpu0.dtb.domain_faults                       0                       # Number of TLB faults due to domain restrictions
system.cpu0.dtb.perms_faults                        0                       # Number of TLB faults due to permissions restrictions
system.cpu0.dtb.read_accesses                       0                       # DTB read accesses
system.cpu0.dtb.write_accesses                      0                       # DTB write accesses
system.cpu0.dtb.inst_accesses                       0                       # ITB inst accesses
system.cpu0.dtb.hits                                0                       # DTB hits
system.cpu0.dtb.misses                              0                       # DTB misses
system.cpu0.dtb.accesses                            0                       # DTB accesses
system.cpu0.istage2_mmu.stage2_tlb.walker.walks            0                       # Table walker walks requested
system.cpu0.istage2_mmu.stage2_tlb.walker.walkRequestOrigin_Requested::Data            0                       # Table walker requests started/completed, data/inst
system.cpu0.istage2_mmu.stage2_tlb.walker.walkRequestOrigin_Requested::Inst            0                       # Table walker requests started/completed, data/inst
system.cpu0.istage2_mmu.stage2_tlb.walker.walkRequestOrigin_Requested::total            0                       # Table walker requests started/completed, data/inst
system.cpu0.istage2_mmu.stage2_tlb.walker.walkRequestOrigin_Completed::Data            0                       # Table walker requests started/completed, data/inst
system.cpu0.istage2_mmu.stage2_tlb.walker.walkRequestOrigin_Completed::Inst            0                       # Table walker requests started/completed, data/inst
system.cpu0.istage2_mmu.stage2_tlb.walker.walkRequestOrigin_Completed::total            0                       # Table walker requests started/completed, data/inst
system.cpu0.istage2_mmu.stage2_tlb.walker.walkRequestOrigin::total            0                       # Table walker requests started/completed, data/inst
system.cpu0.istage2_mmu.stage2_tlb.inst_hits            0                       # ITB inst hits
system.cpu0.istage2_mmu.stage2_tlb.inst_misses            0                       # ITB inst misses
system.cpu0.istage2_mmu.stage2_tlb.read_hits            0                       # DTB read hits
system.cpu0.istage2_mmu.stage2_tlb.read_misses            0                       # DTB read misses
system.cpu0.istage2_mmu.stage2_tlb.write_hits            0                       # DTB write hits
system.cpu0.istage2_mmu.stage2_tlb.write_misses            0                       # DTB write misses
system.cpu0.istage2_mmu.stage2_tlb.flush_tlb            0                       # Number of times complete TLB was flushed
system.cpu0.istage2_mmu.stage2_tlb.flush_tlb_mva            0                       # Number of times TLB was flushed by MVA
system.cpu0.istage2_mmu.stage2_tlb.flush_tlb_mva_asid            0                       # Number of times TLB was flushed by MVA & ASID
system.cpu0.istage2_mmu.stage2_tlb.flush_tlb_asid            0                       # Number of times TLB was flushed by ASID
system.cpu0.istage2_mmu.stage2_tlb.flush_entries            0                       # Number of entries that have been flushed from TLB
system.cpu0.istage2_mmu.stage2_tlb.align_faults            0                       # Number of TLB faults due to alignment restrictions
system.cpu0.istage2_mmu.stage2_tlb.prefetch_faults            0                       # Number of TLB faults due to prefetch
system.cpu0.istage2_mmu.stage2_tlb.domain_faults            0                       # Number of TLB faults due to domain restrictions
system.cpu0.istage2_mmu.stage2_tlb.perms_faults            0                       # Number of TLB faults due to permissions restrictions
system.cpu0.istage2_mmu.stage2_tlb.read_accesses            0                       # DTB read accesses
system.cpu0.istage2_mmu.stage2_tlb.write_accesses            0                       # DTB write accesses
system.cpu0.istage2_mmu.stage2_tlb.inst_accesses            0                       # ITB inst accesses
system.cpu0.istage2_mmu.stage2_tlb.hits             0                       # DTB hits
system.cpu0.istage2_mmu.stage2_tlb.misses            0                       # DTB misses
system.cpu0.istage2_mmu.stage2_tlb.accesses            0                       # DTB accesses
system.cpu0.itb.walker.walks                        0                       # Table walker walks requested
system.cpu0.itb.walker.walkRequestOrigin_Requested::Data            0                       # Table walker requests started/completed, data/inst
system.cpu0.itb.walker.walkRequestOrigin_Requested::Inst            0                       # Table walker requests started/completed, data/inst
system.cpu0.itb.walker.walkRequestOrigin_Requested::total            0                       # Table walker requests started/completed, data/inst
system.cpu0.itb.walker.walkRequestOrigin_Completed::Data            0                       # Table walker requests started/completed, data/inst
system.cpu0.itb.walker.walkRequestOrigin_Completed::Inst            0                       # Table walker requests started/completed, data/inst
system.cpu0.itb.walker.walkRequestOrigin_Completed::total            0                       # Table walker requests started/completed, data/inst
system.cpu0.itb.walker.walkRequestOrigin::total            0                       # Table walker requests started/completed, data/inst
system.cpu0.itb.inst_hits                           0                       # ITB inst hits
system.cpu0.itb.inst_misses                         0                       # ITB inst misses
system.cpu0.itb.read_hits                           0                       # DTB read hits
system.cpu0.itb.read_misses                         0                       # DTB read misses
system.cpu0.itb.write_hits                          0                       # DTB write hits
system.cpu0.itb.write_misses                        0                       # DTB write misses
system.cpu0.itb.flush_tlb                           0                       # Number of times complete TLB was flushed
system.cpu0.itb.flush_tlb_mva                       0                       # Number of times TLB was flushed by MVA
system.cpu0.itb.flush_tlb_mva_asid                  0                       # Number of times TLB was flushed by MVA & ASID
system.cpu0.itb.flush_tlb_asid                      0                       # Number of times TLB was flushed by ASID
system.cpu0.itb.flush_entries                       0                       # Number of entries that have been flushed from TLB
system.cpu0.itb.align_faults                        0                       # Number of TLB faults due to alignment restrictions
system.cpu0.itb.prefetch_faults                     0                       # Number of TLB faults due to prefetch
system.cpu0.itb.domain_faults                       0                       # Number of TLB faults due to domain restrictions
system.cpu0.itb.perms_faults                        0                       # Number of TLB faults due to permissions restrictions
system.cpu0.itb.read_accesses                       0                       # DTB read accesses
system.cpu0.itb.write_accesses                      0                       # DTB write accesses
system.cpu0.itb.inst_accesses                       0                       # ITB inst accesses
system.cpu0.itb.hits                                0                       # DTB hits
system.cpu0.itb.misses                              0                       # DTB misses
system.cpu0.itb.accesses                            0                       # DTB accesses
system.cpu0.workload.num_syscalls                 389                       # Number of system calls
system.cpu0.numCycles                          369450                       # number of cpu cycles simulated
system.cpu0.numWorkItemsStarted                     0                       # number of work items this cpu started
system.cpu0.numWorkItemsCompleted                   0                       # number of work items this cpu completed
system.cpu0.fetch.icacheStallCycles             16523                       # Number of cycles fetch is stalled on an Icache miss
system.cpu0.fetch.Insts                        394002                       # Number of instructions fetch has processed
system.cpu0.fetch.Branches                      36113                       # Number of branches that fetch encountered
system.cpu0.fetch.predictedBranches             29179                       # Number of branches that fetch has predicted taken
system.cpu0.fetch.Cycles                       309745                       # Number of cycles fetch has run and was not squashing or blocked
system.cpu0.fetch.SquashCycles                   3685                       # Number of cycles fetch has spent squashing
system.cpu0.fetch.MiscStallCycles                 256                       # Number of cycles fetch has spent waiting on interrupts, or bad addresses, or out of MSHRs
system.cpu0.fetch.PendingTrapStallCycles          108                       # Number of stall cycles due to pending traps
system.cpu0.fetch.IcacheWaitRetryStallCycles          426                       # Number of stall cycles due to full MSHR
system.cpu0.fetch.CacheLines                   110846                       # Number of cache lines fetched
system.cpu0.fetch.IcacheSquashes                  372                       # Number of outstanding Icache misses that were squashed
system.cpu0.fetch.rateDist::samples            328900                       # Number of instructions fetched each cycle (Total)
system.cpu0.fetch.rateDist::mean             1.271125                       # Number of instructions fetched each cycle (Total)
system.cpu0.fetch.rateDist::stdev            1.296800                       # Number of instructions fetched each cycle (Total)
system.cpu0.fetch.rateDist::underflows              0      0.00%      0.00% # Number of instructions fetched each cycle (Total)
system.cpu0.fetch.rateDist::0                  135966     41.34%     41.34% # Number of instructions fetched each cycle (Total)
system.cpu0.fetch.rateDist::1                   75884     23.07%     64.41% # Number of instructions fetched each cycle (Total)
system.cpu0.fetch.rateDist::2                    8961      2.72%     67.14% # Number of instructions fetched each cycle (Total)
system.cpu0.fetch.rateDist::3                  108089     32.86%    100.00% # Number of instructions fetched each cycle (Total)
system.cpu0.fetch.rateDist::overflows               0      0.00%    100.00% # Number of instructions fetched each cycle (Total)
system.cpu0.fetch.rateDist::min_value               0                       # Number of instructions fetched each cycle (Total)
system.cpu0.fetch.rateDist::max_value               3                       # Number of instructions fetched each cycle (Total)
system.cpu0.fetch.rateDist::total              328900                       # Number of instructions fetched each cycle (Total)
system.cpu0.fetch.branchRate                 0.097748                       # Number of branch fetches per cycle
system.cpu0.fetch.rate                       1.066456                       # Number of inst fetches per cycle
system.cpu0.decode.IdleCycles                   17881                       # Number of cycles decode is idle
system.cpu0.decode.BlockedCycles               125234                       # Number of cycles decode is blocked
system.cpu0.decode.RunCycles                   179317                       # Number of cycles decode is running
system.cpu0.decode.UnblockCycles                 4950                       # Number of cycles decode is unblocking
system.cpu0.decode.SquashCycles                  1518                       # Number of cycles decode is squashing
system.cpu0.decode.BranchResolved                1005                       # Number of times decode resolved a branch
system.cpu0.decode.BranchMispred                  343                       # Number of times decode detected a branch misprediction
system.cpu0.decode.DecodedInsts                403352                       # Number of instructions handled by decode
system.cpu0.decode.SquashedInsts                 6452                       # Number of squashed instructions handled by decode
system.cpu0.rename.SquashCycles                  1518                       # Number of cycles rename is squashing
system.cpu0.rename.IdleCycles                   24839                       # Number of cycles rename is idle
system.cpu0.rename.BlockCycles                  10923                       # Number of cycles rename is blocking
system.cpu0.rename.serializeStallCycles          9507                       # count of cycles rename stalled for serializing inst
system.cpu0.rename.RunCycles                   177182                       # Number of cycles rename is running
system.cpu0.rename.UnblockCycles               104931                       # Number of cycles rename is unblocking
system.cpu0.rename.RenamedInsts                397803                       # Number of instructions processed by rename
system.cpu0.rename.SquashedInsts                 2276                       # Number of squashed instructions processed by rename
system.cpu0.rename.ROBFullEvents                  304                       # Number of times rename has blocked due to ROB full
system.cpu0.rename.IQFullEvents                    20                       # Number of times rename has blocked due to IQ full
system.cpu0.rename.LQFullEvents                     1                       # Number of times rename has blocked due to LQ full
system.cpu0.rename.SQFullEvents                102523                       # Number of times rename has blocked due to SQ full
system.cpu0.rename.RenamedOperands             498522                       # Number of destination operands rename has renamed
system.cpu0.rename.RenameLookups              1974333                       # Number of register rename lookups that rename has made
system.cpu0.rename.int_rename_lookups          643337                       # Number of integer rename lookups
system.cpu0.rename.fp_rename_lookups               22                       # Number of floating rename lookups
system.cpu0.rename.CommittedMaps               482622                       # Number of HB maps that are committed
system.cpu0.rename.UndoneMaps                   15900                       # Number of HB maps that are undone due to squashing
system.cpu0.rename.serializingInsts               131                       # count of serializing insts renamed
system.cpu0.rename.tempSerializingInsts           129                       # count of temporary serializing insts renamed
system.cpu0.rename.skidInsts                    10723                       # count of insts added to the skid buffer
system.cpu0.memDep0.insertedLoads               79814                       # Number of loads inserted to the mem dependence unit.
system.cpu0.memDep0.insertedStores              31420                       # Number of stores inserted to the mem dependence unit.
system.cpu0.memDep0.conflictingLoads              334                       # Number of conflicting loads.
system.cpu0.memDep0.conflictingStores             180                       # Number of conflicting stores.
system.cpu0.iq.iqInstsAdded                    395337                       # Number of instructions added to the IQ (excludes non-spec)
system.cpu0.iq.iqNonSpecInstsAdded                281                       # Number of non-speculative instructions added to the IQ
system.cpu0.iq.iqInstsIssued                   391535                       # Number of instructions issued
system.cpu0.iq.iqSquashedInstsIssued              782                       # Number of squashed instructions issued
system.cpu0.iq.iqSquashedInstsExamined          12317                       # Number of squashed instructions iterated over during squash; mainly for profiling
system.cpu0.iq.iqSquashedOperandsExamined        31203                       # Number of squashed operands that are examined and possibly removed from graph
system.cpu0.iq.iqSquashedNonSpecRemoved            54                       # Number of squashed non-spec instructions that were removed
system.cpu0.iq.issued_per_cycle::samples       328900                       # Number of insts issued each cycle
system.cpu0.iq.issued_per_cycle::mean        1.190438                       # Number of insts issued each cycle
system.cpu0.iq.issued_per_cycle::stdev       1.305219                       # Number of insts issued each cycle
system.cpu0.iq.issued_per_cycle::underflows            0      0.00%      0.00% # Number of insts issued each cycle
system.cpu0.iq.issued_per_cycle::0             158914     48.32%     48.32% # Number of insts issued each cycle
system.cpu0.iq.issued_per_cycle::1              40196     12.22%     60.54% # Number of insts issued each cycle
system.cpu0.iq.issued_per_cycle::2              42157     12.82%     73.36% # Number of insts issued each cycle
system.cpu0.iq.issued_per_cycle::3              83510     25.39%     98.75% # Number of insts issued each cycle
system.cpu0.iq.issued_per_cycle::4               4120      1.25%    100.00% # Number of insts issued each cycle
system.cpu0.iq.issued_per_cycle::5                  3      0.00%    100.00% # Number of insts issued each cycle
system.cpu0.iq.issued_per_cycle::6                  0      0.00%    100.00% # Number of insts issued each cycle
system.cpu0.iq.issued_per_cycle::7                  0      0.00%    100.00% # Number of insts issued each cycle
system.cpu0.iq.issued_per_cycle::8                  0      0.00%    100.00% # Number of insts issued each cycle
system.cpu0.iq.issued_per_cycle::overflows            0      0.00%    100.00% # Number of insts issued each cycle
system.cpu0.iq.issued_per_cycle::min_value            0                       # Number of insts issued each cycle
system.cpu0.iq.issued_per_cycle::max_value            5                       # Number of insts issued each cycle
system.cpu0.iq.issued_per_cycle::total         328900                       # Number of insts issued each cycle
system.cpu0.iq.fu_full::No_OpClass                  0      0.00%      0.00% # attempts to use FU when none available
system.cpu0.iq.fu_full::IntAlu                   6604     11.44%     11.44% # attempts to use FU when none available
system.cpu0.iq.fu_full::IntMult                   748      1.30%     12.73% # attempts to use FU when none available
system.cpu0.iq.fu_full::IntDiv                      0      0.00%     12.73% # attempts to use FU when none available
system.cpu0.iq.fu_full::FloatAdd                    0      0.00%     12.73% # attempts to use FU when none available
system.cpu0.iq.fu_full::FloatCmp                    0      0.00%     12.73% # attempts to use FU when none available
system.cpu0.iq.fu_full::FloatCvt                    0      0.00%     12.73% # attempts to use FU when none available
system.cpu0.iq.fu_full::FloatMult                   0      0.00%     12.73% # attempts to use FU when none available
system.cpu0.iq.fu_full::FloatDiv                    0      0.00%     12.73% # attempts to use FU when none available
system.cpu0.iq.fu_full::FloatSqrt                   0      0.00%     12.73% # attempts to use FU when none available
system.cpu0.iq.fu_full::SimdAdd                     0      0.00%     12.73% # attempts to use FU when none available
system.cpu0.iq.fu_full::SimdAddAcc                  0      0.00%     12.73% # attempts to use FU when none available
system.cpu0.iq.fu_full::SimdAlu                     0      0.00%     12.73% # attempts to use FU when none available
system.cpu0.iq.fu_full::SimdCmp                     0      0.00%     12.73% # attempts to use FU when none available
system.cpu0.iq.fu_full::SimdCvt                     0      0.00%     12.73% # attempts to use FU when none available
system.cpu0.iq.fu_full::SimdMisc                    0      0.00%     12.73% # attempts to use FU when none available
system.cpu0.iq.fu_full::SimdMult                    0      0.00%     12.73% # attempts to use FU when none available
system.cpu0.iq.fu_full::SimdMultAcc                 0      0.00%     12.73% # attempts to use FU when none available
system.cpu0.iq.fu_full::SimdShift                   0      0.00%     12.73% # attempts to use FU when none available
system.cpu0.iq.fu_full::SimdShiftAcc                0      0.00%     12.73% # attempts to use FU when none available
system.cpu0.iq.fu_full::SimdSqrt                    0      0.00%     12.73% # attempts to use FU when none available
system.cpu0.iq.fu_full::SimdFloatAdd                0      0.00%     12.73% # attempts to use FU when none available
system.cpu0.iq.fu_full::SimdFloatAlu                0      0.00%     12.73% # attempts to use FU when none available
system.cpu0.iq.fu_full::SimdFloatCmp                0      0.00%     12.73% # attempts to use FU when none available
system.cpu0.iq.fu_full::SimdFloatCvt                0      0.00%     12.73% # attempts to use FU when none available
system.cpu0.iq.fu_full::SimdFloatDiv                0      0.00%     12.73% # attempts to use FU when none available
system.cpu0.iq.fu_full::SimdFloatMisc               0      0.00%     12.73% # attempts to use FU when none available
system.cpu0.iq.fu_full::SimdFloatMult               0      0.00%     12.73% # attempts to use FU when none available
system.cpu0.iq.fu_full::SimdFloatMultAcc            0      0.00%     12.73% # attempts to use FU when none available
system.cpu0.iq.fu_full::SimdFloatSqrt               0      0.00%     12.73% # attempts to use FU when none available
system.cpu0.iq.fu_full::MemRead                 37929     65.68%     78.41% # attempts to use FU when none available
system.cpu0.iq.fu_full::MemWrite                12467     21.59%    100.00% # attempts to use FU when none available
system.cpu0.iq.fu_full::IprAccess                   0      0.00%    100.00% # attempts to use FU when none available
system.cpu0.iq.fu_full::InstPrefetch                0      0.00%    100.00% # attempts to use FU when none available
system.cpu0.iq.FU_type_0::No_OpClass                0      0.00%      0.00% # Type of FU issued
system.cpu0.iq.FU_type_0::IntAlu               223981     57.21%     57.21% # Type of FU issued
system.cpu0.iq.FU_type_0::IntMult               57635     14.72%     71.93% # Type of FU issued
system.cpu0.iq.FU_type_0::IntDiv                    0      0.00%     71.93% # Type of FU issued
system.cpu0.iq.FU_type_0::FloatAdd                  0      0.00%     71.93% # Type of FU issued
system.cpu0.iq.FU_type_0::FloatCmp                  0      0.00%     71.93% # Type of FU issued
system.cpu0.iq.FU_type_0::FloatCvt                  0      0.00%     71.93% # Type of FU issued
system.cpu0.iq.FU_type_0::FloatMult                 0      0.00%     71.93% # Type of FU issued
system.cpu0.iq.FU_type_0::FloatDiv                  0      0.00%     71.93% # Type of FU issued
system.cpu0.iq.FU_type_0::FloatSqrt                 0      0.00%     71.93% # Type of FU issued
system.cpu0.iq.FU_type_0::SimdAdd                   0      0.00%     71.93% # Type of FU issued
system.cpu0.iq.FU_type_0::SimdAddAcc                0      0.00%     71.93% # Type of FU issued
system.cpu0.iq.FU_type_0::SimdAlu                   0      0.00%     71.93% # Type of FU issued
system.cpu0.iq.FU_type_0::SimdCmp                   0      0.00%     71.93% # Type of FU issued
system.cpu0.iq.FU_type_0::SimdCvt                   0      0.00%     71.93% # Type of FU issued
system.cpu0.iq.FU_type_0::SimdMisc                  0      0.00%     71.93% # Type of FU issued
system.cpu0.iq.FU_type_0::SimdMult                  0      0.00%     71.93% # Type of FU issued
system.cpu0.iq.FU_type_0::SimdMultAcc               0      0.00%     71.93% # Type of FU issued
system.cpu0.iq.FU_type_0::SimdShift                 0      0.00%     71.93% # Type of FU issued
system.cpu0.iq.FU_type_0::SimdShiftAcc              0      0.00%     71.93% # Type of FU issued
system.cpu0.iq.FU_type_0::SimdSqrt                  0      0.00%     71.93% # Type of FU issued
system.cpu0.iq.FU_type_0::SimdFloatAdd              0      0.00%     71.93% # Type of FU issued
system.cpu0.iq.FU_type_0::SimdFloatAlu              0      0.00%     71.93% # Type of FU issued
system.cpu0.iq.FU_type_0::SimdFloatCmp              0      0.00%     71.93% # Type of FU issued
system.cpu0.iq.FU_type_0::SimdFloatCvt              0      0.00%     71.93% # Type of FU issued
system.cpu0.iq.FU_type_0::SimdFloatDiv              0      0.00%     71.93% # Type of FU issued
system.cpu0.iq.FU_type_0::SimdFloatMisc             3      0.00%     71.93% # Type of FU issued
system.cpu0.iq.FU_type_0::SimdFloatMult             0      0.00%     71.93% # Type of FU issued
system.cpu0.iq.FU_type_0::SimdFloatMultAcc            0      0.00%     71.93% # Type of FU issued
system.cpu0.iq.FU_type_0::SimdFloatSqrt             0      0.00%     71.93% # Type of FU issued
system.cpu0.iq.FU_type_0::MemRead               79067     20.19%     92.12% # Type of FU issued
system.cpu0.iq.FU_type_0::MemWrite              30849      7.88%    100.00% # Type of FU issued
system.cpu0.iq.FU_type_0::IprAccess                 0      0.00%    100.00% # Type of FU issued
system.cpu0.iq.FU_type_0::InstPrefetch              0      0.00%    100.00% # Type of FU issued
system.cpu0.iq.FU_type_0::total                391535                       # Type of FU issued
system.cpu0.iq.rate                          1.059778                       # Inst issue rate
system.cpu0.iq.fu_busy_cnt                      57748                       # FU busy when requested
system.cpu0.iq.fu_busy_rate                  0.147491                       # FU busy rate (busy events/executed inst)
system.cpu0.iq.int_inst_queue_reads           1170423                       # Number of integer instruction queue reads
system.cpu0.iq.int_inst_queue_writes           407924                       # Number of integer instruction queue writes
system.cpu0.iq.int_inst_queue_wakeup_accesses       387714                       # Number of integer instruction queue wakeup accesses
system.cpu0.iq.fp_inst_queue_reads                 77                       # Number of floating instruction queue reads
system.cpu0.iq.fp_inst_queue_writes                28                       # Number of floating instruction queue writes
system.cpu0.iq.fp_inst_queue_wakeup_accesses           28                       # Number of floating instruction queue wakeup accesses
system.cpu0.iq.int_alu_accesses                449234                       # Number of integer alu accesses
system.cpu0.iq.fp_alu_accesses                     49                       # Number of floating point alu accesses
system.cpu0.iew.lsq.thread0.forwLoads              56                       # Number of loads that had data forwarded from stores
system.cpu0.iew.lsq.thread0.invAddrLoads            0                       # Number of loads ignored due to an invalid address
system.cpu0.iew.lsq.thread0.squashedLoads         3410                       # Number of loads squashed
system.cpu0.iew.lsq.thread0.ignoredResponses            1                       # Number of memory responses ignored because the instruction is squashed
system.cpu0.iew.lsq.thread0.memOrderViolation           18                       # Number of memory ordering violations
system.cpu0.iew.lsq.thread0.squashedStores         1104                       # Number of stores squashed
system.cpu0.iew.lsq.thread0.invAddrSwpfs            0                       # Number of software prefetches ignored due to an invalid address
system.cpu0.iew.lsq.thread0.blockedLoads            0                       # Number of blocked loads due to partial load-store forwarding
system.cpu0.iew.lsq.thread0.rescheduledLoads           25                       # Number of loads that were rescheduled
system.cpu0.iew.lsq.thread0.cacheBlocked         1105                       # Number of times an access to memory failed due to the cache being blocked
system.cpu0.iew.iewIdleCycles                       0                       # Number of cycles IEW is idle
system.cpu0.iew.iewSquashCycles                  1518                       # Number of cycles IEW is squashing
system.cpu0.iew.iewBlockCycles                    706                       # Number of cycles IEW is blocking
system.cpu0.iew.iewUnblockCycles                 4373                       # Number of cycles IEW is unblocking
system.cpu0.iew.iewDispatchedInsts             395634                       # Number of instructions dispatched to IQ
system.cpu0.iew.iewDispSquashedInsts                0                       # Number of squashed instructions skipped by dispatch
system.cpu0.iew.iewDispLoadInsts                79814                       # Number of dispatched load instructions
system.cpu0.iew.iewDispStoreInsts               31420                       # Number of dispatched store instructions
system.cpu0.iew.iewDispNonSpecInsts               126                       # Number of dispatched non-speculative instructions
system.cpu0.iew.iewIQFullEvents                     5                       # Number of times the IQ has become full, causing a stall
system.cpu0.iew.iewLSQFullEvents                 4365                       # Number of times the LSQ has become full, causing a stall
system.cpu0.iew.memOrderViolationEvents            18                       # Number of memory order violations
system.cpu0.iew.predictedTakenIncorrect           503                       # Number of branches that were predicted taken incorrectly
system.cpu0.iew.predictedNotTakenIncorrect         1020                       # Number of branches that were predicted not taken incorrectly
system.cpu0.iew.branchMispredicts                1523                       # Number of branch mispredicts detected at execute
system.cpu0.iew.iewExecutedInsts               388748                       # Number of executed instructions
system.cpu0.iew.iewExecLoadInsts                77868                       # Number of load instructions executed
system.cpu0.iew.iewExecSquashedInsts             2787                       # Number of squashed instructions skipped in execute
system.cpu0.iew.exec_swp                            0                       # number of swp insts executed
system.cpu0.iew.exec_nop                           16                       # number of nop insts executed
system.cpu0.iew.exec_refs                      108504                       # number of memory reference insts executed
system.cpu0.iew.exec_branches                   31828                       # Number of branches executed
system.cpu0.iew.exec_stores                     30636                       # Number of stores executed
[...]
system.cpu7.icache.demand_miss_latency::total      5911249                       # number of demand (read+write) miss cycles
system.cpu7.icache.overall_miss_latency::cpu7.inst      5911249                       # number of overall miss cycles
system.cpu7.icache.overall_miss_latency::total      5911249                       # number of overall miss cycles
system.cpu7.icache.ReadReq_accesses::cpu7.inst        76558                       # number of ReadReq accesses(hits+misses)
system.cpu7.icache.ReadReq_accesses::total        76558                       # number of ReadReq accesses(hits+misses)
system.cpu7.icache.demand_accesses::cpu7.inst        76558                       # number of demand (read+write) accesses
system.cpu7.icache.demand_accesses::total        76558                       # number of demand (read+write) accesses
system.cpu7.icache.overall_accesses::cpu7.inst        76558                       # number of overall (read+write) accesses
system.cpu7.icache.overall_accesses::total        76558                       # number of overall (read+write) accesses
system.cpu7.icache.ReadReq_miss_rate::cpu7.inst     0.000914                       # miss rate for ReadReq accesses
system.cpu7.icache.ReadReq_miss_rate::total     0.000914                       # miss rate for ReadReq accesses
system.cpu7.icache.demand_miss_rate::cpu7.inst     0.000914                       # miss rate for demand accesses
system.cpu7.icache.demand_miss_rate::total     0.000914                       # miss rate for demand accesses
system.cpu7.icache.overall_miss_rate::cpu7.inst     0.000914                       # miss rate for overall accesses
system.cpu7.icache.overall_miss_rate::total     0.000914                       # miss rate for overall accesses
system.cpu7.icache.ReadReq_avg_miss_latency::cpu7.inst 84446.414286                       # average ReadReq miss latency
system.cpu7.icache.ReadReq_avg_miss_latency::total 84446.414286                       # average ReadReq miss latency
system.cpu7.icache.demand_avg_miss_latency::cpu7.inst 84446.414286                       # average overall miss latency
system.cpu7.icache.demand_avg_miss_latency::total 84446.414286                       # average overall miss latency
system.cpu7.icache.overall_avg_miss_latency::cpu7.inst 84446.414286                       # average overall miss latency
system.cpu7.icache.overall_avg_miss_latency::total 84446.414286                       # average overall miss latency
system.cpu7.icache.blocked_cycles::no_mshrs         1643                       # number of cycles access was blocked
system.cpu7.icache.blocked_cycles::no_targets            0                       # number of cycles access was blocked
system.cpu7.icache.blocked::no_mshrs               13                       # number of cycles access was blocked
system.cpu7.icache.blocked::no_targets              0                       # number of cycles access was blocked
system.cpu7.icache.avg_blocked_cycles::no_mshrs   126.384615                       # average number of cycles each access was blocked
system.cpu7.icache.avg_blocked_cycles::no_targets          nan                       # average number of cycles each access was blocked
system.cpu7.icache.fast_writes                      0                       # number of fast writes performed
system.cpu7.icache.cache_copies                     0                       # number of cache copies performed
system.cpu7.icache.ReadReq_mshr_hits::cpu7.inst           14                       # number of ReadReq MSHR hits
system.cpu7.icache.ReadReq_mshr_hits::total           14                       # number of ReadReq MSHR hits
system.cpu7.icache.demand_mshr_hits::cpu7.inst           14                       # number of demand (read+write) MSHR hits
system.cpu7.icache.demand_mshr_hits::total           14                       # number of demand (read+write) MSHR hits
system.cpu7.icache.overall_mshr_hits::cpu7.inst           14                       # number of overall MSHR hits
system.cpu7.icache.overall_mshr_hits::total           14                       # number of overall MSHR hits
system.cpu7.icache.ReadReq_mshr_misses::cpu7.inst           56                       # number of ReadReq MSHR misses
system.cpu7.icache.ReadReq_mshr_misses::total           56                       # number of ReadReq MSHR misses
system.cpu7.icache.demand_mshr_misses::cpu7.inst           56                       # number of demand (read+write) MSHR misses
system.cpu7.icache.demand_mshr_misses::total           56                       # number of demand (read+write) MSHR misses
system.cpu7.icache.overall_mshr_misses::cpu7.inst           56                       # number of overall MSHR misses
system.cpu7.icache.overall_mshr_misses::total           56                       # number of overall MSHR misses
system.cpu7.icache.ReadReq_mshr_miss_latency::cpu7.inst      4867499                       # number of ReadReq MSHR miss cycles
system.cpu7.icache.ReadReq_mshr_miss_latency::total      4867499                       # number of ReadReq MSHR miss cycles
system.cpu7.icache.demand_mshr_miss_latency::cpu7.inst      4867499                       # number of demand (read+write) MSHR miss cycles
system.cpu7.icache.demand_mshr_miss_latency::total      4867499                       # number of demand (read+write) MSHR miss cycles
system.cpu7.icache.overall_mshr_miss_latency::cpu7.inst      4867499                       # number of overall MSHR miss cycles
system.cpu7.icache.overall_mshr_miss_latency::total      4867499                       # number of overall MSHR miss cycles
system.cpu7.icache.ReadReq_mshr_miss_rate::cpu7.inst     0.000731                       # mshr miss rate for ReadReq accesses
system.cpu7.icache.ReadReq_mshr_miss_rate::total     0.000731                       # mshr miss rate for ReadReq accesses
system.cpu7.icache.demand_mshr_miss_rate::cpu7.inst     0.000731                       # mshr miss rate for demand accesses
system.cpu7.icache.demand_mshr_miss_rate::total     0.000731                       # mshr miss rate for demand accesses
system.cpu7.icache.overall_mshr_miss_rate::cpu7.inst     0.000731                       # mshr miss rate for overall accesses
system.cpu7.icache.overall_mshr_miss_rate::total     0.000731                       # mshr miss rate for overall accesses
system.cpu7.icache.ReadReq_avg_mshr_miss_latency::cpu7.inst 86919.625000                       # average ReadReq mshr miss latency
system.cpu7.icache.ReadReq_avg_mshr_miss_latency::total 86919.625000                       # average ReadReq mshr miss latency
system.cpu7.icache.demand_avg_mshr_miss_latency::cpu7.inst 86919.625000                       # average overall mshr miss latency
system.cpu7.icache.demand_avg_mshr_miss_latency::total 86919.625000                       # average overall mshr miss latency
system.cpu7.icache.overall_avg_mshr_miss_latency::cpu7.inst 86919.625000                       # average overall mshr miss latency
system.cpu7.icache.overall_avg_mshr_miss_latency::total 86919.625000                       # average overall mshr miss latency
system.cpu7.icache.no_allocate_misses               0                       # Number of misses that were no-allocate
system.membus.trans_dist::ReadReq                3976                       # Transaction distribution
system.membus.trans_dist::ReadResp               3975                       # Transaction distribution
system.membus.trans_dist::Writeback               253                       # Transaction distribution
system.membus.trans_dist::UpgradeReq               15                       # Transaction distribution
system.membus.trans_dist::SCUpgradeReq             24                       # Transaction distribution
system.membus.trans_dist::UpgradeResp              39                       # Transaction distribution
system.membus.trans_dist::ReadExReq              1487                       # Transaction distribution
system.membus.trans_dist::ReadExResp             1487                       # Transaction distribution
system.membus.pkt_count_system.cpu0.icache.mem_side::system.mem_ctrls.port         1247                       # Packet count per connected master and slave (bytes)
system.membus.pkt_count_system.cpu0.dcache.mem_side::system.mem_ctrls.port         3071                       # Packet count per connected master and slave (bytes)
system.membus.pkt_count_system.cpu1.icache.mem_side::system.mem_ctrls.port           98                       # Packet count per connected master and slave (bytes)
system.membus.pkt_count_system.cpu1.dcache.mem_side::system.mem_ctrls.port          532                       # Packet count per connected master and slave (bytes)
system.membus.pkt_count_system.cpu2.icache.mem_side::system.mem_ctrls.port          108                       # Packet count per connected master and slave (bytes)
system.membus.pkt_count_system.cpu2.dcache.mem_side::system.mem_ctrls.port          472                       # Packet count per connected master and slave (bytes)
system.membus.pkt_count_system.cpu3.icache.mem_side::system.mem_ctrls.port          110                       # Packet count per connected master and slave (bytes)
system.membus.pkt_count_system.cpu3.dcache.mem_side::system.mem_ctrls.port          473                       # Packet count per connected master and slave (bytes)
system.membus.pkt_count_system.cpu4.icache.mem_side::system.mem_ctrls.port          110                       # Packet count per connected master and slave (bytes)
system.membus.pkt_count_system.cpu4.dcache.mem_side::system.mem_ctrls.port          469                       # Packet count per connected master and slave (bytes)
system.membus.pkt_count_system.cpu5.icache.mem_side::system.mem_ctrls.port          112                       # Packet count per connected master and slave (bytes)
system.membus.pkt_count_system.cpu5.dcache.mem_side::system.mem_ctrls.port          485                       # Packet count per connected master and slave (bytes)
system.membus.pkt_count_system.cpu6.icache.mem_side::system.mem_ctrls.port          114                       # Packet count per connected master and slave (bytes)
system.membus.pkt_count_system.cpu6.dcache.mem_side::system.mem_ctrls.port          479                       # Packet count per connected master and slave (bytes)
system.membus.pkt_count_system.cpu7.icache.mem_side::system.mem_ctrls.port          112                       # Packet count per connected master and slave (bytes)
system.membus.pkt_count_system.cpu7.dcache.mem_side::system.mem_ctrls.port          466                       # Packet count per connected master and slave (bytes)
system.membus.pkt_count::total                   8458                       # Packet count per connected master and slave (bytes)
system.membus.pkt_size_system.cpu0.icache.mem_side::system.mem_ctrls.port        39872                       # Cumulative packet size per connected master and slave (bytes)
system.membus.pkt_size_system.cpu0.dcache.mem_side::system.mem_ctrls.port       105216                       # Cumulative packet size per connected master and slave (bytes)
system.membus.pkt_size_system.cpu1.icache.mem_side::system.mem_ctrls.port         3136                       # Cumulative packet size per connected master and slave (bytes)
system.membus.pkt_size_system.cpu1.dcache.mem_side::system.mem_ctrls.port         3840                       # Cumulative packet size per connected master and slave (bytes)
system.membus.pkt_size_system.cpu2.icache.mem_side::system.mem_ctrls.port         3456                       # Cumulative packet size per connected master and slave (bytes)
system.membus.pkt_size_system.cpu2.dcache.mem_side::system.mem_ctrls.port         2624                       # Cumulative packet size per connected master and slave (bytes)
system.membus.pkt_size_system.cpu3.icache.mem_side::system.mem_ctrls.port         3520                       # Cumulative packet size per connected master and slave (bytes)
system.membus.pkt_size_system.cpu3.dcache.mem_side::system.mem_ctrls.port         2496                       # Cumulative packet size per connected master and slave (bytes)
system.membus.pkt_size_system.cpu4.icache.mem_side::system.mem_ctrls.port         3520                       # Cumulative packet size per connected master and slave (bytes)
system.membus.pkt_size_system.cpu4.dcache.mem_side::system.mem_ctrls.port         2176                       # Cumulative packet size per connected master and slave (bytes)
system.membus.pkt_size_system.cpu5.icache.mem_side::system.mem_ctrls.port         3584                       # Cumulative packet size per connected master and slave (bytes)
system.membus.pkt_size_system.cpu5.dcache.mem_side::system.mem_ctrls.port         3072                       # Cumulative packet size per connected master and slave (bytes)
system.membus.pkt_size_system.cpu6.icache.mem_side::system.mem_ctrls.port         3648                       # Cumulative packet size per connected master and slave (bytes)
system.membus.pkt_size_system.cpu6.dcache.mem_side::system.mem_ctrls.port         2816                       # Cumulative packet size per connected master and slave (bytes)
system.membus.pkt_size_system.cpu7.icache.mem_side::system.mem_ctrls.port         3584                       # Cumulative packet size per connected master and slave (bytes)
system.membus.pkt_size_system.cpu7.dcache.mem_side::system.mem_ctrls.port         2176                       # Cumulative packet size per connected master and slave (bytes)
system.membus.pkt_size::total                  188736                       # Cumulative packet size per connected master and slave (bytes)
system.membus.snoops                             2798                       # Total snoops (count)
system.membus.snoop_fanout::samples              5755                       # Request fanout histogram
system.membus.snoop_fanout::mean                   15                       # Request fanout histogram
system.membus.snoop_fanout::stdev                   0                       # Request fanout histogram
system.membus.snoop_fanout::underflows              0      0.00%      0.00% # Request fanout histogram
system.membus.snoop_fanout::0                       0      0.00%      0.00% # Request fanout histogram
system.membus.snoop_fanout::1                       0      0.00%      0.00% # Request fanout histogram
system.membus.snoop_fanout::2                       0      0.00%      0.00% # Request fanout histogram
system.membus.snoop_fanout::3                       0      0.00%      0.00% # Request fanout histogram
system.membus.snoop_fanout::4                       0      0.00%      0.00% # Request fanout histogram
system.membus.snoop_fanout::5                       0      0.00%      0.00% # Request fanout histogram
system.membus.snoop_fanout::6                       0      0.00%      0.00% # Request fanout histogram
system.membus.snoop_fanout::7                       0      0.00%      0.00% # Request fanout histogram
system.membus.snoop_fanout::8                       0      0.00%      0.00% # Request fanout histogram
system.membus.snoop_fanout::9                       0      0.00%      0.00% # Request fanout histogram
system.membus.snoop_fanout::10                      0      0.00%      0.00% # Request fanout histogram
system.membus.snoop_fanout::11                      0      0.00%      0.00% # Request fanout histogram
system.membus.snoop_fanout::12                      0      0.00%      0.00% # Request fanout histogram
system.membus.snoop_fanout::13                      0      0.00%      0.00% # Request fanout histogram
system.membus.snoop_fanout::14                      0      0.00%      0.00% # Request fanout histogram
system.membus.snoop_fanout::15                   5755    100.00%    100.00% # Request fanout histogram
system.membus.snoop_fanout::16                      0      0.00%    100.00% # Request fanout histogram
system.membus.snoop_fanout::overflows               0      0.00%    100.00% # Request fanout histogram
system.membus.snoop_fanout::min_value              15                       # Request fanout histogram
system.membus.snoop_fanout::max_value              15                       # Request fanout histogram
system.membus.snoop_fanout::total                5755                       # Request fanout histogram
system.membus.reqLayer0.occupancy             8434497                       # Layer occupancy (ticks)
system.membus.reqLayer0.utilization               4.6                       # Layer utilization (%)
system.membus.respLayer1.occupancy            3320250                       # Layer occupancy (ticks)
system.membus.respLayer1.utilization              1.8                       # Layer utilization (%)
system.membus.respLayer2.occupancy            7494246                       # Layer occupancy (ticks)
system.membus.respLayer2.utilization              4.1                       # Layer utilization (%)
system.membus.respLayer5.occupancy             265000                       # Layer occupancy (ticks)
system.membus.respLayer5.utilization              0.1                       # Layer utilization (%)
system.membus.respLayer6.occupancy            2371719                       # Layer occupancy (ticks)
system.membus.respLayer6.utilization              1.3                       # Layer utilization (%)
system.membus.respLayer9.occupancy             288500                       # Layer occupancy (ticks)
system.membus.respLayer9.utilization              0.2                       # Layer utilization (%)
system.membus.respLayer10.occupancy           2178704                       # Layer occupancy (ticks)
system.membus.respLayer10.utilization             1.2                       # Layer utilization (%)
system.membus.respLayer13.occupancy            295750                       # Layer occupancy (ticks)
system.membus.respLayer13.utilization             0.2                       # Layer utilization (%)
system.membus.respLayer14.occupancy           2195206                       # Layer occupancy (ticks)
system.membus.respLayer14.utilization             1.2                       # Layer utilization (%)
system.membus.respLayer17.occupancy            294750                       # Layer occupancy (ticks)
system.membus.respLayer17.utilization             0.2                       # Layer utilization (%)
system.membus.respLayer18.occupancy           2201447                       # Layer occupancy (ticks)
system.membus.respLayer18.utilization             1.2                       # Layer utilization (%)
system.membus.respLayer21.occupancy            298250                       # Layer occupancy (ticks)
system.membus.respLayer21.utilization             0.2                       # Layer utilization (%)
system.membus.respLayer22.occupancy           2215696                       # Layer occupancy (ticks)
system.membus.respLayer22.utilization             1.2                       # Layer utilization (%)
system.membus.respLayer25.occupancy            303500                       # Layer occupancy (ticks)
system.membus.respLayer25.utilization             0.2                       # Layer utilization (%)
system.membus.respLayer26.occupancy           2201447                       # Layer occupancy (ticks)
system.membus.respLayer26.utilization             1.2                       # Layer utilization (%)
system.membus.respLayer29.occupancy            299000                       # Layer occupancy (ticks)
system.membus.respLayer29.utilization             0.2                       # Layer utilization (%)
system.membus.respLayer30.occupancy           2157708                       # Layer occupancy (ticks)
system.membus.respLayer30.utilization             1.2                       # Layer utilization (%)

---------- End Simulation Statistics   ----------
