
---------- Begin Simulation Statistics ----------
sim_seconds                                  0.000076                       # Number of seconds simulated
sim_ticks                                    76152500                       # Number of ticks simulated
final_tick                                   76152500                       # Number of ticks from beginning of simulation (restored from checkpoints and never reset)
sim_freq                                 1000000000000                       # Frequency of simulated ticks
host_inst_rate                                 121066                       # Simulator instruction rate (inst/s)
host_op_rate                                   124822                       # Simulator op (including micro ops) rate (op/s)
host_tick_rate                               28316956                       # Simulator tick rate (ticks/s)
host_mem_usage                                 658708                       # Number of bytes of host memory used
host_seconds                                     2.69                       # Real time elapsed on the host
sim_insts                                      325532                       # Number of instructions simulated
sim_ops                                        335677                       # Number of ops (including micro ops) simulated
system.voltage_domain.voltage                       1                       # Voltage in Volts
system.clk_domain.clock                          1000                       # Clock period in ticks
system.mem_ctrls.bytes_read::cpu0.inst          39488                       # Number of bytes read from this memory
system.mem_ctrls.bytes_read::cpu0.data          34432                       # Number of bytes read from this memory
system.mem_ctrls.bytes_read::cpu1.inst           3584                       # Number of bytes read from this memory
system.mem_ctrls.bytes_read::cpu1.data           1152                       # Number of bytes read from this memory
system.mem_ctrls.bytes_read::cpu2.inst           3584                       # Number of bytes read from this memory
system.mem_ctrls.bytes_read::cpu2.data           1216                       # Number of bytes read from this memory
system.mem_ctrls.bytes_read::cpu3.inst           3584                       # Number of bytes read from this memory
system.mem_ctrls.bytes_read::cpu3.data           1216                       # Number of bytes read from this memory
system.mem_ctrls.bytes_read::total              88256                       # Number of bytes read from this memory
system.mem_ctrls.bytes_inst_read::cpu0.inst        39488                       # Number of instructions bytes read from this memory
system.mem_ctrls.bytes_inst_read::cpu1.inst         3584                       # Number of instructions bytes read from this memory
system.mem_ctrls.bytes_inst_read::cpu2.inst         3584                       # Number of instructions bytes read from this memory
system.mem_ctrls.bytes_inst_read::cpu3.inst         3584                       # Number of instructions bytes read from this memory
system.mem_ctrls.bytes_inst_read::total         50240                       # Number of instructions bytes read from this memory
system.mem_ctrls.bytes_written::writebacks          896                       # Number of bytes written to this memory
system.mem_ctrls.bytes_written::total             896                       # Number of bytes written to this memory
system.mem_ctrls.num_reads::cpu0.inst             617                       # Number of read requests responded to by this memory
system.mem_ctrls.num_reads::cpu0.data             538                       # Number of read requests responded to by this memory
system.mem_ctrls.num_reads::cpu1.inst              56                       # Number of read requests responded to by this memory
system.mem_ctrls.num_reads::cpu1.data              18                       # Number of read requests responded to by this memory
system.mem_ctrls.num_reads::cpu2.inst              56                       # Number of read requests responded to by this memory
system.mem_ctrls.num_reads::cpu2.data              19                       # Number of read requests responded to by this memory
system.mem_ctrls.num_reads::cpu3.inst              56                       # Number of read requests responded to by this memory
system.mem_ctrls.num_reads::cpu3.data              19                       # Number of read requests responded to by this memory
system.mem_ctrls.num_reads::total                1379                       # Number of read requests responded to by this memory
system.mem_ctrls.num_writes::writebacks            14                       # Number of write requests responded to by this memory
system.mem_ctrls.num_writes::total                 14                       # Number of write requests responded to by this memory
system.mem_ctrls.bw_read::cpu0.inst         518538459                       # Total read bandwidth from this memory (bytes/s)
system.mem_ctrls.bw_read::cpu0.data         452145366                       # Total read bandwidth from this memory (bytes/s)
system.mem_ctrls.bw_read::cpu1.inst          47063458                       # Total read bandwidth from this memory (bytes/s)
system.mem_ctrls.bw_read::cpu1.data          15127540                       # Total read bandwidth from this memory (bytes/s)
system.mem_ctrls.bw_read::cpu2.inst          47063458                       # Total read bandwidth from this memory (bytes/s)
system.mem_ctrls.bw_read::cpu2.data          15967959                       # Total read bandwidth from this memory (bytes/s)
system.mem_ctrls.bw_read::cpu3.inst          47063458                       # Total read bandwidth from this memory (bytes/s)
system.mem_ctrls.bw_read::cpu3.data          15967959                       # Total read bandwidth from this memory (bytes/s)
system.mem_ctrls.bw_read::total            1158937658                       # Total read bandwidth from this memory (bytes/s)
system.mem_ctrls.bw_inst_read::cpu0.inst    518538459                       # Instruction read bandwidth from this memory (bytes/s)
system.mem_ctrls.bw_inst_read::cpu1.inst     47063458                       # Instruction read bandwidth from this memory (bytes/s)
system.mem_ctrls.bw_inst_read::cpu2.inst     47063458                       # Instruction read bandwidth from this memory (bytes/s)
system.mem_ctrls.bw_inst_read::cpu3.inst     47063458                       # Instruction read bandwidth from this memory (bytes/s)
system.mem_ctrls.bw_inst_read::total        659728834                       # Instruction read bandwidth from this memory (bytes/s)
system.mem_ctrls.bw_write::writebacks        11765865                       # Write bandwidth from this memory (bytes/s)
system.mem_ctrls.bw_write::total             11765865                       # Write bandwidth from this memory (bytes/s)
system.mem_ctrls.bw_total::writebacks        11765865                       # Total bandwidth to/from this memory (bytes/s)
system.mem_ctrls.bw_total::cpu0.inst        518538459                       # Total bandwidth to/from this memory (bytes/s)
system.mem_ctrls.bw_total::cpu0.data        452145366                       # Total bandwidth to/from this memory (bytes/s)
system.mem_ctrls.bw_total::cpu1.inst         47063458                       # Total bandwidth to/from this memory (bytes/s)
system.mem_ctrls.bw_total::cpu1.data         15127540                       # Total bandwidth to/from this memory (bytes/s)
system.mem_ctrls.bw_total::cpu2.inst         47063458                       # Total bandwidth to/from this memory (bytes/s)
system.mem_ctrls.bw_total::cpu2.data         15967959                       # Total bandwidth to/from this memory (bytes/s)
system.mem_ctrls.bw_total::cpu3.inst         47063458                       # Total bandwidth to/from this memory (bytes/s)
system.mem_ctrls.bw_total::cpu3.data         15967959                       # Total bandwidth to/from this memory (bytes/s)
system.mem_ctrls.bw_total::total           1170703523                       # Total bandwidth to/from this memory (bytes/s)
system.mem_ctrls.readReqs                        1380                       # Number of read requests accepted
system.mem_ctrls.writeReqs                         14                       # Number of write requests accepted
system.mem_ctrls.readBursts                      1380                       # Number of DRAM read bursts, including those serviced by the write queue
system.mem_ctrls.writeBursts                       14                       # Number of DRAM write bursts, including those merged in the write queue
system.mem_ctrls.bytesReadDRAM                  87232                       # Total number of bytes read from DRAM
system.mem_ctrls.bytesReadWrQ                    1088                       # Total number of bytes read from write queue
system.mem_ctrls.bytesWritten                       0                       # Total number of bytes written to DRAM
system.mem_ctrls.bytesReadSys                   88320                       # Total read bytes from the system interface side
system.mem_ctrls.bytesWrittenSys                  896                       # Total written bytes from the system interface side
system.mem_ctrls.servicedByWrQ                     17                       # Number of DRAM read bursts serviced by the write queue
system.mem_ctrls.mergedWrBursts                     2                       # Number of DRAM write bursts merged with an existing one
system.mem_ctrls.neitherReadNorWriteReqs            8                       # Number of requests that are neither read nor write
system.mem_ctrls.perBankRdBursts::0               183                       # Per bank write bursts
system.mem_ctrls.perBankRdBursts::1               246                       # Per bank write bursts
system.mem_ctrls.perBankRdBursts::2               176                       # Per bank write bursts
system.mem_ctrls.perBankRdBursts::3               219                       # Per bank write bursts
system.mem_ctrls.perBankRdBursts::4               159                       # Per bank write bursts
system.mem_ctrls.perBankRdBursts::5                53                       # Per bank write bursts
system.mem_ctrls.perBankRdBursts::6               105                       # Per bank write bursts
system.mem_ctrls.perBankRdBursts::7                33                       # Per bank write bursts
system.mem_ctrls.perBankRdBursts::8                16                       # Per bank write bursts
system.mem_ctrls.perBankRdBursts::9                 8                       # Per bank write bursts
system.mem_ctrls.perBankRdBursts::10                0                       # Per bank write bursts
system.mem_ctrls.perBankRdBursts::11               15                       # Per bank write bursts
system.mem_ctrls.perBankRdBursts::12                8                       # Per bank write bursts
system.mem_ctrls.perBankRdBursts::13               40                       # Per bank write bursts
system.mem_ctrls.perBankRdBursts::14               39                       # Per bank write bursts
system.mem_ctrls.perBankRdBursts::15               63                       # Per bank write bursts
system.mem_ctrls.perBankWrBursts::0                 0                       # Per bank write bursts
system.mem_ctrls.perBankWrBursts::1                 0                       # Per bank write bursts
system.mem_ctrls.perBankWrBursts::2                 0                       # Per bank write bursts
system.mem_ctrls.perBankWrBursts::3                 0                       # Per bank write bursts
system.mem_ctrls.perBankWrBursts::4                 0                       # Per bank write bursts
system.mem_ctrls.perBankWrBursts::5                 0                       # Per bank write bursts
system.mem_ctrls.perBankWrBursts::6                 0                       # Per bank write bursts
system.mem_ctrls.perBankWrBursts::7                 0                       # Per bank write bursts
system.mem_ctrls.perBankWrBursts::8                 0                       # Per bank write bursts
system.mem_ctrls.perBankWrBursts::9                 0                       # Per bank write bursts
system.mem_ctrls.perBankWrBursts::10                0                       # Per bank write bursts
system.mem_ctrls.perBankWrBursts::11                0                       # Per bank write bursts
system.mem_ctrls.perBankWrBursts::12                0                       # Per bank write bursts
system.mem_ctrls.perBankWrBursts::13                0                       # Per bank write bursts
system.mem_ctrls.perBankWrBursts::14                0                       # Per bank write bursts
system.mem_ctrls.perBankWrBursts::15                0                       # Per bank write bursts
system.mem_ctrls.numRdRetry                         0                       # Number of times read queue was full causing retry
system.mem_ctrls.numWrRetry                         0                       # Number of times write queue was full causing retry
system.mem_ctrls.totGap                      76150000                       # Total gap between requests
system.mem_ctrls.readPktSize::0                     0                       # Read request sizes (log2)
system.mem_ctrls.readPktSize::1                     0                       # Read request sizes (log2)
system.mem_ctrls.readPktSize::2                     0                       # Read request sizes (log2)
system.mem_ctrls.readPktSize::3                     0                       # Read request sizes (log2)
system.mem_ctrls.readPktSize::4                     0                       # Read request sizes (log2)
system.mem_ctrls.readPktSize::5                     0                       # Read request sizes (log2)
system.mem_ctrls.readPktSize::6                  1380                       # Read request sizes (log2)
system.mem_ctrls.writePktSize::0                    0                       # Write request sizes (log2)
system.mem_ctrls.writePktSize::1                    0                       # Write request sizes (log2)
system.mem_ctrls.writePktSize::2                    0                       # Write request sizes (log2)
system.mem_ctrls.writePktSize::3                    0                       # Write request sizes (log2)
system.mem_ctrls.writePktSize::4                    0                       # Write request sizes (log2)
system.mem_ctrls.writePktSize::5                    0                       # Write request sizes (log2)
system.mem_ctrls.writePktSize::6                   14                       # Write request sizes (log2)
system.mem_ctrls.rdQLenPdf::0                     826                       # What read queue length does an incoming req see
system.mem_ctrls.rdQLenPdf::1                     308                       # What read queue length does an incoming req see
system.mem_ctrls.rdQLenPdf::2                     115                       # What read queue length does an incoming req see
system.mem_ctrls.rdQLenPdf::3                      54                       # What read queue length does an incoming req see
system.mem_ctrls.rdQLenPdf::4                      37                       # What read queue length does an incoming req see
system.mem_ctrls.rdQLenPdf::5                      14                       # What read queue length does an incoming req see
system.mem_ctrls.rdQLenPdf::6                       6                       # What read queue length does an incoming req see
system.mem_ctrls.rdQLenPdf::7                       2                       # What read queue length does an incoming req see
system.mem_ctrls.rdQLenPdf::8                       1                       # What read queue length does an incoming req see
system.mem_ctrls.rdQLenPdf::9                       0                       # What read queue length does an incoming req see
system.mem_ctrls.rdQLenPdf::10                      0                       # What read queue length does an incoming req see
system.mem_ctrls.rdQLenPdf::11                      0                       # What read queue length does an incoming req see
system.mem_ctrls.rdQLenPdf::12                      0                       # What read queue length does an incoming req see
system.mem_ctrls.rdQLenPdf::13                      0                       # What read queue length does an incoming req see
system.mem_ctrls.rdQLenPdf::14                      0                       # What read queue length does an incoming req see
system.mem_ctrls.rdQLenPdf::15                      0                       # What read queue length does an incoming req see
system.mem_ctrls.rdQLenPdf::16                      0                       # What read queue length does an incoming req see
system.mem_ctrls.rdQLenPdf::17                      0                       # What read queue length does an incoming req see
system.mem_ctrls.rdQLenPdf::18                      0                       # What read queue length does an incoming req see
system.mem_ctrls.rdQLenPdf::19                      0                       # What read queue length does an incoming req see
system.mem_ctrls.rdQLenPdf::20                      0                       # What read queue length does an incoming req see
system.mem_ctrls.rdQLenPdf::21                      0                       # What read queue length does an incoming req see
system.mem_ctrls.rdQLenPdf::22                      0                       # What read queue length does an incoming req see
system.mem_ctrls.rdQLenPdf::23                      0                       # What read queue length does an incoming req see
system.mem_ctrls.rdQLenPdf::24                      0                       # What read queue length does an incoming req see
system.mem_ctrls.rdQLenPdf::25                      0                       # What read queue length does an incoming req see
system.mem_ctrls.rdQLenPdf::26                      0                       # What read queue length does an incoming req see
system.mem_ctrls.rdQLenPdf::27                      0                       # What read queue length does an incoming req see
system.mem_ctrls.rdQLenPdf::28                      0                       # What read queue length does an incoming req see
system.mem_ctrls.rdQLenPdf::29                      0                       # What read queue length does an incoming req see
system.mem_ctrls.rdQLenPdf::30                      0                       # What read queue length does an incoming req see
system.mem_ctrls.rdQLenPdf::31                      0                       # What read queue length does an incoming req see
system.mem_ctrls.wrQLenPdf::0                       1                       # What write queue length does an incoming req see
system.mem_ctrls.wrQLenPdf::1                       1                       # What write queue length does an incoming req see
system.mem_ctrls.wrQLenPdf::2                       1                       # What write queue length does an incoming req see
system.mem_ctrls.wrQLenPdf::3                       1                       # What write queue length does an incoming req see
system.mem_ctrls.wrQLenPdf::4                       1                       # What write queue length does an incoming req see
system.mem_ctrls.wrQLenPdf::5                       1                       # What write queue length does an incoming req see
system.mem_ctrls.wrQLenPdf::6                       1                       # What write queue length does an incoming req see
system.mem_ctrls.wrQLenPdf::7                       1                       # What write queue length does an incoming req see
system.mem_ctrls.wrQLenPdf::8                       1                       # What write queue length does an incoming req see
system.mem_ctrls.wrQLenPdf::9                       1                       # What write queue length does an incoming req see
system.mem_ctrls.wrQLenPdf::10                      1                       # What write queue length does an incoming req see
system.mem_ctrls.wrQLenPdf::11                      1                       # What write queue length does an incoming req see
system.mem_ctrls.wrQLenPdf::12                      0                       # What write queue length does an incoming req see
system.mem_ctrls.wrQLenPdf::13                      0                       # What write queue length does an incoming req see
system.mem_ctrls.wrQLenPdf::14                      0                       # What write queue length does an incoming req see
system.mem_ctrls.wrQLenPdf::15                      0                       # What write queue length does an incoming req see
system.mem_ctrls.wrQLenPdf::16                      0                       # What write queue length does an incoming req see
system.mem_ctrls.wrQLenPdf::17                      0                       # What write queue length does an incoming req see
system.mem_ctrls.wrQLenPdf::18                      0                       # What write queue length does an incoming req see
system.mem_ctrls.wrQLenPdf::19                      0                       # What write queue length does an incoming req see
system.mem_ctrls.wrQLenPdf::20                      0                       # What write queue length does an incoming req see
system.mem_ctrls.wrQLenPdf::21                      0                       # What write queue length does an incoming req see
system.mem_ctrls.wrQLenPdf::22                      0                       # What write queue length does an incoming req see
system.mem_ctrls.wrQLenPdf::23                      0                       # What write queue length does an incoming req see
system.mem_ctrls.wrQLenPdf::24                      0                       # What write queue length does an incoming req see
system.mem_ctrls.wrQLenPdf::25                      0                       # What write queue length does an incoming req see
system.mem_ctrls.wrQLenPdf::26                      0                       # What write queue length does an incoming req see
system.mem_ctrls.wrQLenPdf::27                      0                       # What write queue length does an incoming req see
system.mem_ctrls.wrQLenPdf::28                      0                       # What write queue length does an incoming req see
system.mem_ctrls.wrQLenPdf::29                      0                       # What write queue length does an incoming req see
system.mem_ctrls.wrQLenPdf::30                      0                       # What write queue length does an incoming req see
system.mem_ctrls.wrQLenPdf::31                      0                       # What write queue length does an incoming req see
system.mem_ctrls.wrQLenPdf::32                      0                       # What write queue length does an incoming req see
system.mem_ctrls.wrQLenPdf::33                      0                       # What write queue length does an incoming req see
system.mem_ctrls.wrQLenPdf::34                      0                       # What write queue length does an incoming req see
system.mem_ctrls.wrQLenPdf::35                      0                       # What write queue length does an incoming req see
system.mem_ctrls.wrQLenPdf::36                      0                       # What write queue length does an incoming req see
system.mem_ctrls.wrQLenPdf::37                      0                       # What write queue length does an incoming req see
system.mem_ctrls.wrQLenPdf::38                      0                       # What write queue length does an incoming req see
system.mem_ctrls.wrQLenPdf::39                      0                       # What write queue length does an incoming req see
system.mem_ctrls.wrQLenPdf::40                      0                       # What write queue length does an incoming req see
system.mem_ctrls.wrQLenPdf::41                      0                       # What write queue length does an incoming req see
system.mem_ctrls.wrQLenPdf::42                      0                       # What write queue length does an incoming req see
system.mem_ctrls.wrQLenPdf::43                      0                       # What write queue length does an incoming req see
system.mem_ctrls.wrQLenPdf::44                      0                       # What write queue length does an incoming req see
system.mem_ctrls.wrQLenPdf::45                      0                       # What write queue length does an incoming req see
system.mem_ctrls.wrQLenPdf::46                      0                       # What write queue length does an incoming req see
system.mem_ctrls.wrQLenPdf::47                      0                       # What write queue length does an incoming req see
system.mem_ctrls.wrQLenPdf::48                      0                       # What write queue length does an incoming req see
system.mem_ctrls.wrQLenPdf::49                      0                       # What write queue length does an incoming req see
system.mem_ctrls.wrQLenPdf::50                      0                       # What write queue length does an incoming req see
system.mem_ctrls.wrQLenPdf::51                      0                       # What write queue length does an incoming req see
system.mem_ctrls.wrQLenPdf::52                      0                       # What write queue length does an incoming req see
system.mem_ctrls.wrQLenPdf::53                      0                       # What write queue length does an incoming req see
system.mem_ctrls.wrQLenPdf::54                      0                       # What write queue length does an incoming req see
system.mem_ctrls.wrQLenPdf::55                      0                       # What write queue length does an incoming req see
system.mem_ctrls.wrQLenPdf::56                      0                       # What write queue length does an incoming req see
system.mem_ctrls.wrQLenPdf::57                      0                       # What write queue length does an incoming req see
system.mem_ctrls.wrQLenPdf::58                      0                       # What write queue length does an incoming req see
system.mem_ctrls.wrQLenPdf::59                      0                       # What write queue length does an incoming req see
system.mem_ctrls.wrQLenPdf::60                      0                       # What write queue length does an incoming req see
system.mem_ctrls.wrQLenPdf::61                      0                       # What write queue length does an incoming req see
system.mem_ctrls.wrQLenPdf::62                      0                       # What write queue length does an incoming req see
system.mem_ctrls.wrQLenPdf::63                      0                       # What write queue length does an incoming req see
system.mem_ctrls.bytesPerActivate::samples          255                       # Bytes accessed per row activation
system.mem_ctrls.bytesPerActivate::mean    332.549020                       # Bytes accessed per row activation
system.mem_ctrls.bytesPerActivate::gmean   196.481333                       # Bytes accessed per row activation
system.mem_ctrls.bytesPerActivate::stdev   338.708450                       # Bytes accessed per row activation
system.mem_ctrls.bytesPerActivate::0-127           90     35.29%     35.29% # Bytes accessed per row activation
system.mem_ctrls.bytesPerActivate::128-255           57     22.35%     57.65% # Bytes accessed per row activation
system.mem_ctrls.bytesPerActivate::256-383           25      9.80%     67.45% # Bytes accessed per row activation
system.mem_ctrls.bytesPerActivate::384-511           21      8.24%     75.69% # Bytes accessed per row activation
system.mem_ctrls.bytesPerActivate::512-639           11      4.31%     80.00% # Bytes accessed per row activation
system.mem_ctrls.bytesPerActivate::640-767            7      2.75%     82.75% # Bytes accessed per row activation
system.mem_ctrls.bytesPerActivate::768-895            5      1.96%     84.71% # Bytes accessed per row activation
system.mem_ctrls.bytesPerActivate::896-1023            4      1.57%     86.27% # Bytes accessed per row activation
system.mem_ctrls.bytesPerActivate::1024-1151           35     13.73%    100.00% # Bytes accessed per row activation
system.mem_ctrls.bytesPerActivate::total          255                       # Bytes accessed per row activation
system.mem_ctrls.totQLat                     13731250                       # Total ticks spent queuing
system.mem_ctrls.totMemAccLat                39287500                       # Total ticks spent from burst creation until serviced by the DRAM
system.mem_ctrls.totBusLat                    6815000                       # Total ticks spent in databus transfers
system.mem_ctrls.avgQLat                     10074.28                       # Average queueing delay per DRAM burst
system.mem_ctrls.avgBusLat                    5000.00                       # Average bus latency per DRAM burst
system.mem_ctrls.avgMemAccLat                28824.28                       # Average memory access latency per DRAM burst
system.mem_ctrls.avgRdBW                      1145.49                       # Average DRAM read bandwidth in MiByte/s
system.mem_ctrls.avgWrBW                         0.00                       # Average achieved write bandwidth in MiByte/s
system.mem_ctrls.avgRdBWSys                   1159.78                       # Average system read bandwidth in MiByte/s
system.mem_ctrls.avgWrBWSys                     11.77                       # Average system write bandwidth in MiByte/s
system.mem_ctrls.peakBW                      12800.00                       # Theoretical peak bandwidth in MiByte/s
system.mem_ctrls.busUtil                         8.95                       # Data bus utilization in percentage
system.mem_ctrls.busUtilRead                     8.95                       # Data bus utilization in percentage for reads
system.mem_ctrls.busUtilWrite                    0.00                       # Data bus utilization in percentage for writes
system.mem_ctrls.avgRdQLen                       1.45                       # Average read queue length when enqueuing
system.mem_ctrls.avgWrQLen                       4.86                       # Average write queue length when enqueuing
system.mem_ctrls.readRowHits                     1097                       # Number of row buffer hits during reads
system.mem_ctrls.writeRowHits                       0                       # Number of row buffer hits during writes
system.mem_ctrls.readRowHitRate                 80.48                       # Row buffer hit rate for reads
system.mem_ctrls.writeRowHitRate                 0.00                       # Row buffer hit rate for writes
system.mem_ctrls.avgGap                      54626.97                       # Average gap between requests
system.mem_ctrls.pageHitRate                    79.78                       # Row buffer hit rate, read and write combined
system.mem_ctrls_0.actEnergy                  1542240                       # Energy for activate commands per rank (pJ)
system.mem_ctrls_0.preEnergy                   841500                       # Energy for precharge commands per rank (pJ)
system.mem_ctrls_0.readEnergy                 8385000                       # Energy for read commands per rank (pJ)
system.mem_ctrls_0.writeEnergy                      0                       # Energy for write commands per rank (pJ)
system.mem_ctrls_0.refreshEnergy              4577040                       # Energy for refresh commands per rank (pJ)
system.mem_ctrls_0.actBackEnergy             41857380                       # Energy for active background per rank (pJ)
system.mem_ctrls_0.preBackEnergy              5476500                       # Energy for precharge background per rank (pJ)
system.mem_ctrls_0.totalEnergy               62679660                       # Total energy per rank (pJ)
system.mem_ctrls_0.averagePower            891.317288                       # Core power per rank (mW)
system.mem_ctrls_0.memoryStateTime::IDLE      9294000                       # Time in different power states
system.mem_ctrls_0.memoryStateTime::REF       2340000                       # Time in different power states
system.mem_ctrls_0.memoryStateTime::PRE_PDN            0                       # Time in different power states
system.mem_ctrls_0.memoryStateTime::ACT      59145500                       # Time in different power states
system.mem_ctrls_0.memoryStateTime::ACT_PDN            0                       # Time in different power states
system.mem_ctrls_1.actEnergy                   234360                       # Energy for activate commands per rank (pJ)
system.mem_ctrls_1.preEnergy                   127875                       # Energy for precharge commands per rank (pJ)
system.mem_ctrls_1.readEnergy                 1123200                       # Energy for read commands per rank (pJ)
system.mem_ctrls_1.writeEnergy                      0                       # Energy for write commands per rank (pJ)
system.mem_ctrls_1.refreshEnergy              4577040                       # Energy for refresh commands per rank (pJ)
system.mem_ctrls_1.actBackEnergy             29560770                       # Energy for active background per rank (pJ)
system.mem_ctrls_1.preBackEnergy             16263000                       # Energy for precharge background per rank (pJ)
system.mem_ctrls_1.totalEnergy               51886245                       # Total energy per rank (pJ)
system.mem_ctrls_1.averagePower            737.832770                       # Core power per rank (mW)
system.mem_ctrls_1.memoryStateTime::IDLE     27716250                       # Time in different power states
system.mem_ctrls_1.memoryStateTime::REF       2340000                       # Time in different power states
system.mem_ctrls_1.memoryStateTime::PRE_PDN            0                       # Time in different power states
system.mem_ctrls_1.memoryStateTime::ACT      41114250                       # Time in different power states
system.mem_ctrls_1.memoryStateTime::ACT_PDN            0                       # Time in different power states
system.cpu0.branchPred.lookups                  13879                       # Number of BP lookups
system.cpu0.branchPred.condPredicted            11632                       # Number of conditional branches predicted
system.cpu0.branchPred.condIncorrect             1497                       # Number of conditional branches incorrect
system.cpu0.branchPred.BTBLookups                8654                       # Number of BTB lookups
system.cpu0.branchPred.BTBHits                   7871                       # Number of BTB hits
system.cpu0.branchPred.BTBCorrect                   0                       # Number of correct BTB predictions (this stat may not work properly.
system.cpu0.branchPred.BTBHitPct            90.952161                       # BTB Hit Percentage
system.cpu0.branchPred.usedRAS                    737                       # Number of times the RAS was used to get a target.
system.cpu0.branchPred.RASInCorrect                 7                       # Number of incorrect RAS predictions.
system.cpu_voltage_domain.voltage                   1                       # Voltage in Volts
system.cpu_clk_domain.clock                       500                       # Clock period in ticks
system.cpu0.dstage2_mmu.stage2_tlb.walker.walks            0                       # Table walker walks requested
system.cpu0.dstage2_mmu.stage2_tlb.walker.walkRequestOrigin_Requested::Data            0                       # Table walker requests started/completed, data/inst
system.cpu0.dstage2_mmu.stage2_tlb.walker.walkRequestOrigin_Requested::Inst            0                       # Table walker requests started/completed, data/inst
system.cpu0.dstage2_mmu.stage2_tlb.walker.walkRequestOrigin_Requested::total            0                       # Table walker requests started/completed, data/inst
system.cpu0.dstage2_mmu.stage2_tlb.walker.walkRequestOrigin_Completed::Data            0                       # Table walker requests started/completed, data/inst
system.cpu0.dstage2_mmu.stage2_tlb.walker.walkRequestOrigin_Completed::Inst            0                       # Table walker requests started/completed, data/inst
system.cpu0.dstage2_mmu.stage2_tlb.walker.walkRequestOrigin_Completed::total            0                       # Table walker requests started/completed, data/inst
system.cpu0.dstage2_mmu.stage2_tlb.walker.walkRequestOrigin::total            0                       # Table walker requests started/completed, data/inst
system.cpu0.dstage2_mmu.stage2_tlb.inst_hits            0                       # ITB inst hits
system.cpu0.dstage2_mmu.stage2_tlb.inst_misses            0                       # ITB inst misses
system.cpu0.dstage2_mmu.stage2_tlb.read_hits            0                       # DTB read hits
system.cpu0.dstage2_mmu.stage2_tlb.read_misses            0                       # DTB read misses
system.cpu0.dstage2_mmu.stage2_tlb.write_hits            0                       # DTB write hits
system.cpu0.dstage2_mmu.stage2_tlb.write_misses            0                       # DTB write misses
system.cpu0.dstage2_mmu.stage2_tlb.flush_tlb            0                       # Number of times complete TLB was flushed
system.cpu0.dstage2_mmu.stage2_tlb.flush_tlb_mva            0                       # Number of times TLB was flushed by MVA
system.cpu0.dstage2_mmu.stage2_tlb.flush_tlb_mva_asid            0                       # Number of times TLB was flushed by MVA & ASID
system.cpu0.dstage2_mmu.stage2_tlb.flush_tlb_asid            0                       # Number of times TLB was flushed by ASID
system.cpu0.dstage2_mmu.stage2_tlb.flush_entries            0                       # Number of entries that have been flushed from TLB
system.cpu0.dstage2_mmu.stage2_tlb.align_faults            0                       # Number of TLB faults due to alignment restrictions
system.cpu0.dstage2_mmu.stage2_tlb.prefetch_faults            0                       # Number of TLB faults due to prefetch
system.cpu0.dstage2_mmu.stage2_tlb.domain_faults            0                       # Number of TLB faults due to domain restrictions
system.cpu0.dstage2_mmu.stage2_tlb.perms_faults            0                       # Number of TLB faults due to permissions restrictions
system.cpu0.dstage2_mmu.stage2_tlb.read_accesses            0                       # DTB read accesses
system.cpu0.dstage2_mmu.stage2_tlb.write_accesses            0                       # DTB write accesses
system.cpu0.dstage2_mmu.stage2_tlb.inst_accesses            0                       # ITB inst accesses
system.cpu0.dstage2_mmu.stage2_tlb.hits             0                       # DTB hits
system.cpu0.dstage2_mmu.stage2_tlb.misses            0                       # DTB misses
system.cpu0.dstage2_mmu.stage2_tlb.accesses            0                       # DTB accesses
system.cpu0.dtb.walker.walks                        0                       # Table walker walks requested
system.cpu0.dtb.walker.walkRequestOrigin_Requested::Data            0                       # Table walker requests started/completed, data/inst
system.cpu0.dtb.walker.walkRequestOrigin_Requested::Inst            0                       # Table walker requests started/completed, data/inst
system.cpu0.dtb.walker.walkRequestOrigin_Requested::total            0                       # Table walker requests started/completed, data/inst
system.cpu0.dtb.walker.walkRequestOrigin_Completed::Data            0                       # Table walker requests started/completed, data/inst
system.cpu0.dtb.walker.walkRequestOrigin_Completed::Inst            0                       # Table walker requests started/completed, data/inst
system.cpu0.dtb.walker.walkRequestOrigin_Completed::total            0                       # Table walker requests started/completed, data/inst
system.cpu0.dtb.walker.walkRequestOrigin::total            0                       # Table walker requests started/completed, data/inst
system.cpu0.dtb.inst_hits                           0                       # ITB inst hits
system.cpu0.dtb.inst_misses                         0                       # ITB inst misses
system.cpu0.dtb.read_hits                           0                       # DTB read hits
system.cpu0.dtb.read_misses                         0                       # DTB read misses
system.cpu0.dtb.write_hits                          0                       # DTB write hits
system.cpu0.dtb.write_misses                        0                       # DTB write misses
system.cpu0.dtb.flush_tlb                           0                       # Number of times complete TLB was flushed
system.cpu0.dtb.flush_tlb_mva                       0                       # Number of times TLB was flushed by MVA
system.cpu0.dtb.flush_tlb_mva_asid                  0                       # Number of times TLB was flushed by MVA & ASID
system.cpu0.dtb.flush_tlb_asid                      0                       # Number of times TLB was flushed by ASID
system.cpu0.dtb.flush_entries                       0                       # Number of entries that have been flushed from TLB
system.cpu0.dtb.align_faults                        0                       # Number of TLB faults due to alignment restrictions
system.cpu0.dtb.prefetch_faults                     0                       # Number of TLB faults due to prefetch
system.cpu0.dtb.domain_faults                       0                       # Number of TLB faults due to domain restrictions
system.cpu0.dtb.perms_faults                        0                       # Number of TLB faults due to permissions restrictions
system.cpu0.dtb.read_accesses                       0                       # DTB read accesses
system.cpu0.dtb.write_accesses                      0                       # DTB write accesses
system.cpu0.dtb.inst_accesses                       0                       # ITB inst accesses
system.cpu0.dtb.hits                                0                       # DTB hits
system.cpu0.dtb.misses                              0                       # DTB misses
system.cpu0.dtb.accesses                            0                       # DTB accesses
system.cpu0.istage2_mmu.stage2_tlb.walker.walks            0                       # Table walker walks requested
system.cpu0.istage2_mmu.stage2_tlb.walker.walkRequestOrigin_Requested::Data            0                       # Table walker requests started/completed, data/inst
system.cpu0.istage2_mmu.stage2_tlb.walker.walkRequestOrigin_Requested::Inst            0                       # Table walker requests started/completed, data/inst
system.cpu0.istage2_mmu.stage2_tlb.walker.walkRequestOrigin_Requested::total            0                       # Table walker requests started/completed, data/inst
system.cpu0.istage2_mmu.stage2_tlb.walker.walkRequestOrigin_Completed::Data            0                       # Table walker requests started/completed, data/inst
system.cpu0.istage2_mmu.stage2_tlb.walker.walkRequestOrigin_Completed::Inst            0                       # Table walker requests started/completed, data/inst
system.cpu0.istage2_mmu.stage2_tlb.walker.walkRequestOrigin_Completed::total            0                       # Table walker requests started/completed, data/inst
system.cpu0.istage2_mmu.stage2_tlb.walker.walkRequestOrigin::total            0                       # Table walker requests started/completed, data/inst
system.cpu0.istage2_mmu.stage2_tlb.inst_hits            0                       # ITB inst hits
system.cpu0.istage2_mmu.stage2_tlb.inst_misses            0                       # ITB inst misses
system.cpu0.istage2_mmu.stage2_tlb.read_hits            0                       # DTB read hits
system.cpu0.istage2_mmu.stage2_tlb.read_misses            0                       # DTB read misses
system.cpu0.istage2_mmu.stage2_tlb.write_hits            0                       # DTB write hits
system.cpu0.istage2_mmu.stage2_tlb.write_misses            0                       # DTB write misses
system.cpu0.istage2_mmu.stage2_tlb.flush_tlb            0                       # Number of times complete TLB was flushed
system.cpu0.istage2_mmu.stage2_tlb.flush_tlb_mva            0                       # Number of times TLB was flushed by MVA
system.cpu0.istage2_mmu.stage2_tlb.flush_tlb_mva_asid            0                       # Number of times TLB was flushed by MVA & ASID
system.cpu0.istage2_mmu.stage2_tlb.flush_tlb_asid            0                       # Number of times TLB was flushed by ASID
system.cpu0.istage2_mmu.stage2_tlb.flush_entries            0                       # Number of entries that have been flushed from TLB
system.cpu0.istage2_mmu.stage2_tlb.align_faults            0                       # Number of TLB faults due to alignment restrictions
system.cpu0.istage2_mmu.stage2_tlb.prefetch_faults            0                       # Number of TLB faults due to prefetch
system.cpu0.istage2_mmu.stage2_tlb.domain_faults            0                       # Number of TLB faults due to domain restrictions
system.cpu0.istage2_mmu.stage2_tlb.perms_faults            0                       # Number of TLB faults due to permissions restrictions
system.cpu0.istage2_mmu.stage2_tlb.read_accesses            0                       # DTB read accesses
system.cpu0.istage2_mmu.stage2_tlb.write_accesses            0                       # DTB write accesses
system.cpu0.istage2_mmu.stage2_tlb.inst_accesses            0                       # ITB inst accesses
system.cpu0.istage2_mmu.stage2_tlb.hits             0                       # DTB hits
system.cpu0.istage2_mmu.stage2_tlb.misses            0                       # DTB misses
system.cpu0.istage2_mmu.stage2_tlb.accesses            0                       # DTB accesses
system.cpu0.itb.walker.walks                        0                       # Table walker walks requested
system.cpu0.itb.walker.walkRequestOrigin_Requested::Data            0                       # Table walker requests started/completed, data/inst
system.cpu0.itb.walker.walkRequestOrigin_Requested::Inst            0                       # Table walker requests started/completed, data/inst
system.cpu0.itb.walker.walkRequestOrigin_Requested::total            0                       # Table walker requests started/completed, data/inst
system.cpu0.itb.walker.walkRequestOrigin_Completed::Data            0                       # Table walker requests started/completed, data/inst
system.cpu0.itb.walker.walkRequestOrigin_Completed::Inst            0                       # Table walker requests started/completed, data/inst
system.cpu0.itb.walker.walkRequestOrigin_Completed::total            0                       # Table walker requests started/completed, data/inst
system.cpu0.itb.walker.walkRequestOrigin::total            0                       # Table walker requests started/completed, data/inst
system.cpu0.itb.inst_hits                           0                       # ITB inst hits
system.cpu0.itb.inst_misses                         0                       # ITB inst misses
system.cpu0.itb.read_hits                           0                       # DTB read hits
system.cpu0.itb.read_misses                         0                       # DTB read misses
system.cpu0.itb.write_hits                          0                       # DTB write hits
system.cpu0.itb.write_misses                        0                       # DTB write misses
system.cpu0.itb.flush_tlb                           0                       # Number of times complete TLB was flushed
system.cpu0.itb.flush_tlb_mva                       0                       # Number of times TLB was flushed by MVA
system.cpu0.itb.flush_tlb_mva_asid                  0                       # Number of times TLB was flushed by MVA & ASID
system.cpu0.itb.flush_tlb_asid                      0                       # Number of times TLB was flushed by ASID
system.cpu0.itb.flush_entries                       0                       # Number of entries that have been flushed from TLB
system.cpu0.itb.align_faults                        0                       # Number of TLB faults due to alignment restrictions
system.cpu0.itb.prefetch_faults                     0                       # Number of TLB faults due to prefetch
system.cpu0.itb.domain_faults                       0                       # Number of TLB faults due to domain restrictions
system.cpu0.itb.perms_faults                        0                       # Number of TLB faults due to permissions restrictions
system.cpu0.itb.read_accesses                       0                       # DTB read accesses
system.cpu0.itb.write_accesses                      0                       # DTB write accesses
system.cpu0.itb.inst_accesses                       0                       # ITB inst accesses
system.cpu0.itb.hits                                0                       # DTB hits
system.cpu0.itb.misses                              0                       # DTB misses
system.cpu0.itb.accesses                            0                       # DTB accesses
system.cpu0.workload.num_syscalls                  80                       # Number of system calls
system.cpu0.numCycles                          152306                       # number of cpu cycles simulated
system.cpu0.numWorkItemsStarted                     0                       # number of work items this cpu started
system.cpu0.numWorkItemsCompleted                   0                       # number of work items this cpu completed
system.cpu0.fetch.icacheStallCycles             15331                       # Number of cycles fetch is stalled on an Icache miss
system.cpu0.fetch.Insts                        125301                       # Number of instructions fetch has processed
system.cpu0.fetch.Branches                      13879                       # Number of branches that fetch encountered
system.cpu0.fetch.predictedBranches              8608                       # Number of branches that fetch has predicted taken
system.cpu0.fetch.Cycles                        96879                       # Number of cycles fetch has run and was not squashing or blocked
system.cpu0.fetch.SquashCycles                   3063                       # Number of cycles fetch has spent squashing
system.cpu0.fetch.MiscStallCycles                 257                       # Number of cycles fetch has spent waiting on interrupts, or bad addresses, or out of MSHRs
system.cpu0.fetch.PendingTrapStallCycles          108                       # Number of stall cycles due to pending traps
system.cpu0.fetch.IcacheWaitRetryStallCycles          442                       # Number of stall cycles due to full MSHR
system.cpu0.fetch.CacheLines                    36583                       # Number of cache lines fetched
system.cpu0.fetch.IcacheSquashes                  359                       # Number of outstanding Icache misses that were squashed
system.cpu0.fetch.rateDist::samples            114548                       # Number of instructions fetched each cycle (Total)
system.cpu0.fetch.rateDist::mean             1.193910                       # Number of instructions fetched each cycle (Total)
system.cpu0.fetch.rateDist::stdev            1.290356                       # Number of instructions fetched each cycle (Total)
system.cpu0.fetch.rateDist::underflows              0      0.00%      0.00% # Number of instructions fetched each cycle (Total)
system.cpu0.fetch.rateDist::0                   51485     44.95%     44.95% # Number of instructions fetched each cycle (Total)
system.cpu0.fetch.rateDist::1                   24290     21.21%     66.15% # Number of instructions fetched each cycle (Total)
system.cpu0.fetch.rateDist::2                    3849      3.36%     69.51% # Number of instructions fetched each cycle (Total)
system.cpu0.fetch.rateDist::3                   34924     30.49%    100.00% # Number of instructions fetched each cycle (Total)
system.cpu0.fetch.rateDist::overflows               0      0.00%    100.00% # Number of instructions fetched each cycle (Total)
system.cpu0.fetch.rateDist::min_value               0                       # Number of instructions fetched each cycle (Total)
system.cpu0.fetch.rateDist::max_value               3                       # Number of instructions fetched each cycle (Total)
system.cpu0.fetch.rateDist::total              114548                       # Number of instructions fetched each cycle (Total)
system.cpu0.fetch.branchRate                 0.091126                       # Number of branch fetches per cycle
system.cpu0.fetch.rate                       0.822692                       # Number of inst fetches per cycle
system.cpu0.decode.IdleCycles                   14569                       # Number of cycles decode is idle
system.cpu0.decode.BlockedCycles                39895                       # Number of cycles decode is blocked
system.cpu0.decode.RunCycles                    57299                       # Number of cycles decode is running
system.cpu0.decode.UnblockCycles                 1575                       # Number of cycles decode is unblocking
system.cpu0.decode.SquashCycles                  1210                       # Number of cycles decode is squashing
system.cpu0.decode.BranchResolved                 891                       # Number of times decode resolved a branch
system.cpu0.decode.BranchMispred                  345                       # Number of times decode detected a branch misprediction
system.cpu0.decode.DecodedInsts                125728                       # Number of instructions handled by decode
system.cpu0.decode.SquashedInsts                 5321                       # Number of squashed instructions handled by decode
system.cpu0.rename.SquashCycles                  1210                       # Number of cycles rename is squashing
system.cpu0.rename.IdleCycles                   18920                       # Number of cycles rename is idle
system.cpu0.rename.BlockCycles                   3467                       # Number of cycles rename is blocking
system.cpu0.rename.serializeStallCycles          6181                       # count of cycles rename stalled for serializing inst
system.cpu0.rename.RunCycles                    54485                       # Number of cycles rename is running
system.cpu0.rename.UnblockCycles                30285                       # Number of cycles rename is unblocking
system.cpu0.rename.RenamedInsts                121495                       # Number of instructions processed by rename
system.cpu0.rename.SquashedInsts                 1880                       # Number of squashed instructions processed by rename
system.cpu0.rename.ROBFullEvents                   96                       # Number of times rename has blocked due to ROB full
system.cpu0.rename.IQFullEvents                    11                       # Number of times rename has blocked due to IQ full
system.cpu0.rename.LQFullEvents                     1                       # Number of times rename has blocked due to LQ full
system.cpu0.rename.SQFullEvents                 29474                       # Number of times rename has blocked due to SQ full
system.cpu0.rename.RenamedOperands             146834                       # Number of destination operands rename has renamed
system.cpu0.rename.RenameLookups               596421                       # Number of register rename lookups that rename has made
system.cpu0.rename.int_rename_lookups          187178                       # Number of integer rename lookups
system.cpu0.rename.fp_rename_lookups               22                       # Number of floating rename lookups
system.cpu0.rename.CommittedMaps               134100                       # Number of HB maps that are committed
system.cpu0.rename.UndoneMaps                   12734                       # Number of HB maps that are undone due to squashing
system.cpu0.rename.serializingInsts               106                       # count of serializing insts renamed
system.cpu0.rename.tempSerializingInsts           104                       # count of temporary serializing insts renamed
system.cpu0.rename.skidInsts                     3600                       # count of insts added to the skid buffer
system.cpu0.memDep0.insertedLoads               23967                       # Number of loads inserted to the mem dependence unit.
system.cpu0.memDep0.insertedStores              11500                       # Number of stores inserted to the mem dependence unit.
system.cpu0.memDep0.conflictingLoads              232                       # Number of conflicting loads.
system.cpu0.memDep0.conflictingStores             104                       # Number of conflicting stores.
system.cpu0.iq.iqInstsAdded                    119465                       # Number of instructions added to the IQ (excludes non-spec)
system.cpu0.iq.iqNonSpecInstsAdded                239                       # Number of non-speculative instructions added to the IQ
system.cpu0.iq.iqInstsIssued                   116138                       # Number of instructions issued
system.cpu0.iq.iqSquashedInstsIssued              563                       # Number of squashed instructions issued
system.cpu0.iq.iqSquashedInstsExamined           9840                       # Number of squashed instructions iterated over during squash; mainly for profiling
system.cpu0.iq.iqSquashedOperandsExamined        25172                       # Number of squashed operands that are examined and possibly removed from graph
system.cpu0.iq.iqSquashedNonSpecRemoved            47                       # Number of squashed non-spec instructions that were removed
system.cpu0.iq.issued_per_cycle::samples       114548                       # Number of insts issued each cycle
system.cpu0.iq.issued_per_cycle::mean        1.013881                       # Number of insts issued each cycle
system.cpu0.iq.issued_per_cycle::stdev       1.243945                       # Number of insts issued each cycle
system.cpu0.iq.issued_per_cycle::underflows            0      0.00%      0.00% # Number of insts issued each cycle
system.cpu0.iq.issued_per_cycle::0              61424     53.62%     53.62% # Number of insts issued each cycle
system.cpu0.iq.issued_per_cycle::1              15166     13.24%     66.86% # Number of insts issued each cycle
system.cpu0.iq.issued_per_cycle::2              14260     12.45%     79.31% # Number of insts issued each cycle
system.cpu0.iq.issued_per_cycle::3              22343     19.51%     98.82% # Number of insts issued each cycle
system.cpu0.iq.issued_per_cycle::4               1352      1.18%    100.00% # Number of insts issued each cycle
system.cpu0.iq.issued_per_cycle::5                  3      0.00%    100.00% # Number of insts issued each cycle
system.cpu0.iq.issued_per_cycle::6                  0      0.00%    100.00% # Number of insts issued each cycle
system.cpu0.iq.issued_per_cycle::7                  0      0.00%    100.00% # Number of insts issued each cycle
system.cpu0.iq.issued_per_cycle::8                  0      0.00%    100.00% # Number of insts issued each cycle
system.cpu0.iq.issued_per_cycle::overflows            0      0.00%    100.00% # Number of insts issued each cycle
system.cpu0.iq.issued_per_cycle::min_value            0                       # Number of insts issued each cycle
system.cpu0.iq.issued_per_cycle::max_value            5                       # Number of insts issued each cycle
system.cpu0.iq.issued_per_cycle::total         114548                       # Number of insts issued each cycle
system.cpu0.iq.fu_full::No_OpClass                  0      0.00%      0.00% # attempts to use FU when none available
system.cpu0.iq.fu_full::IntAlu                   2984     15.77%     15.77% # attempts to use FU when none available
system.cpu0.iq.fu_full::IntMult                   334      1.76%     17.53% # attempts to use FU when none available
system.cpu0.iq.fu_full::IntDiv                      0      0.00%     17.53% # attempts to use FU when none available
system.cpu0.iq.fu_full::FloatAdd                    0      0.00%     17.53% # attempts to use FU when none available
system.cpu0.iq.fu_full::FloatCmp                    0      0.00%     17.53% # attempts to use FU when none available
system.cpu0.iq.fu_full::FloatCvt                    0      0.00%     17.53% # attempts to use FU when none available
system.cpu0.iq.fu_full::FloatMult                   0      0.00%     17.53% # attempts to use FU when none available
system.cpu0.iq.fu_full::FloatDiv                    0      0.00%     17.53% # attempts to use FU when none available
system.cpu0.iq.fu_full::FloatSqrt                   0      0.00%     17.53% # attempts to use FU when none available
system.cpu0.iq.fu_full::SimdAdd                     0      0.00%     17.53% # attempts to use FU when none available
system.cpu0.iq.fu_full::SimdAddAcc                  0      0.00%     17.53% # attempts to use FU when none available
system.cpu0.iq.fu_full::SimdAlu                     0      0.00%     17.53% # attempts to use FU when none available
system.cpu0.iq.fu_full::SimdCmp                     0      0.00%     17.53% # attempts to use FU when none available
system.cpu0.iq.fu_full::SimdCvt                     0      0.00%     17.53% # attempts to use FU when none available
system.cpu0.iq.fu_full::SimdMisc                    0      0.00%     17.53% # attempts to use FU when none available
system.cpu0.iq.fu_full::SimdMult                    0      0.00%     17.53% # attempts to use FU when none available
system.cpu0.iq.fu_full::SimdMultAcc                 0      0.00%     17.53% # attempts to use FU when none available
system.cpu0.iq.fu_full::SimdShift                   0      0.00%     17.53% # attempts to use FU when none available
system.cpu0.iq.fu_full::SimdShiftAcc                0      0.00%     17.53% # attempts to use FU when none available
system.cpu0.iq.fu_full::SimdSqrt                    0      0.00%     17.53% # attempts to use FU when none available
system.cpu0.iq.fu_full::SimdFloatAdd                0      0.00%     17.53% # attempts to use FU when none available
system.cpu0.iq.fu_full::SimdFloatAlu                0      0.00%     17.53% # attempts to use FU when none available
system.cpu0.iq.fu_full::SimdFloatCmp                0      0.00%     17.53% # attempts to use FU when none available
system.cpu0.iq.fu_full::SimdFloatCvt                0      0.00%     17.53% # attempts to use FU when none available
system.cpu0.iq.fu_full::SimdFloatDiv                0      0.00%     17.53% # attempts to use FU when none available
system.cpu0.iq.fu_full::SimdFloatMisc               0      0.00%     17.53% # attempts to use FU when none available
system.cpu0.iq.fu_full::SimdFloatMult               0      0.00%     17.53% # attempts to use FU when none available
system.cpu0.iq.fu_full::SimdFloatMultAcc            0      0.00%     17.53% # attempts to use FU when none available
system.cpu0.iq.fu_full::SimdFloatSqrt               0      0.00%     17.53% # attempts to use FU when none available
system.cpu0.iq.fu_full::MemRead                 10648     56.26%     73.80% # attempts to use FU when none available
system.cpu0.iq.fu_full::MemWrite                 4959     26.20%    100.00% # attempts to use FU when none available
system.cpu0.iq.fu_full::IprAccess                   0      0.00%    100.00% # attempts to use FU when none available
system.cpu0.iq.fu_full::InstPrefetch                0      0.00%    100.00% # attempts to use FU when none available
system.cpu0.iq.FU_type_0::No_OpClass                0      0.00%      0.00% # Type of FU issued
system.cpu0.iq.FU_type_0::IntAlu                67268     57.92%     57.92% # Type of FU issued
system.cpu0.iq.FU_type_0::IntMult               14454     12.45%     70.37% # Type of FU issued
system.cpu0.iq.FU_type_0::IntDiv                    0      0.00%     70.37% # Type of FU issued
system.cpu0.iq.FU_type_0::FloatAdd                  0      0.00%     70.37% # Type of FU issued
system.cpu0.iq.FU_type_0::FloatCmp                  0      0.00%     70.37% # Type of FU issued
system.cpu0.iq.FU_type_0::FloatCvt                  0      0.00%     70.37% # Type of FU issued
system.cpu0.iq.FU_type_0::FloatMult                 0      0.00%     70.37% # Type of FU issued
system.cpu0.iq.FU_type_0::FloatDiv                  0      0.00%     70.37% # Type of FU issued
system.cpu0.iq.FU_type_0::FloatSqrt                 0      0.00%     70.37% # Type of FU issued
system.cpu0.iq.FU_type_0::SimdAdd                   0      0.00%     70.37% # Type of FU issued
system.cpu0.iq.FU_type_0::SimdAddAcc                0      0.00%     70.37% # Type of FU issued
system.cpu0.iq.FU_type_0::SimdAlu                   0      0.00%     70.37% # Type of FU issued
system.cpu0.iq.FU_type_0::SimdCmp                   0      0.00%     70.37% # Type of FU issued
system.cpu0.iq.FU_type_0::SimdCvt                   0      0.00%     70.37% # Type of FU issued
system.cpu0.iq.FU_type_0::SimdMisc                  0      0.00%     70.37% # Type of FU issued
system.cpu0.iq.FU_type_0::SimdMult                  0      0.00%     70.37% # Type of FU issued
system.cpu0.iq.FU_type_0::SimdMultAcc               0      0.00%     70.37% # Type of FU issued
system.cpu0.iq.FU_type_0::SimdShift                 0      0.00%     70.37% # Type of FU issued
system.cpu0.iq.FU_type_0::SimdShiftAcc              0      0.00%     70.37% # Type of FU issued
system.cpu0.iq.FU_type_0::SimdSqrt                  0      0.00%     70.37% # Type of FU issued
system.cpu0.iq.FU_type_0::SimdFloatAdd              0      0.00%     70.37% # Type of FU issued
system.cpu0.iq.FU_type_0::SimdFloatAlu              0      0.00%     70.37% # Type of FU issued
system.cpu0.iq.FU_type_0::SimdFloatCmp              0      0.00%     70.37% # Type of FU issued
system.cpu0.iq.FU_type_0::SimdFloatCvt              0      0.00%     70.37% # Type of FU issued
system.cpu0.iq.FU_type_0::SimdFloatDiv              0      0.00%     70.37% # Type of FU issued
system.cpu0.iq.FU_type_0::SimdFloatMisc             3      0.00%     70.37% # Type of FU issued
system.cpu0.iq.FU_type_0::SimdFloatMult             0      0.00%     70.37% # Type of FU issued
system.cpu0.iq.FU_type_0::SimdFloatMultAcc            0      0.00%     70.37% # Type of FU issued
system.cpu0.iq.FU_type_0::SimdFloatSqrt             0      0.00%     70.37% # Type of FU issued
system.cpu0.iq.FU_type_0::MemRead               23403     20.15%     90.52% # Type of FU issued
system.cpu0.iq.FU_type_0::MemWrite              11010      9.48%    100.00% # Type of FU issued
system.cpu0.iq.FU_type_0::IprAccess                 0      0.00%    100.00% # Type of FU issued
system.cpu0.iq.FU_type_0::InstPrefetch              0      0.00%    100.00% # Type of FU issued
system.cpu0.iq.FU_type_0::total                116138                       # Type of FU issued
system.cpu0.iq.rate                          0.762531                       # Inst issue rate
system.cpu0.iq.fu_busy_cnt                      18925                       # FU busy when requested
system.cpu0.iq.fu_busy_rate                  0.162953                       # FU busy rate (busy events/executed inst)
system.cpu0.iq.int_inst_queue_reads            366236                       # Number of integer instruction queue reads
system.cpu0.iq.int_inst_queue_writes           129532                       # Number of integer instruction queue writes
system.cpu0.iq.int_inst_queue_wakeup_accesses       113370                       # Number of integer instruction queue wakeup accesses
system.cpu0.iq.fp_inst_queue_reads                 76                       # Number of floating instruction queue reads
system.cpu0.iq.fp_inst_queue_writes                28                       # Number of floating instruction queue writes
system.cpu0.iq.fp_inst_queue_wakeup_accesses           28                       # Number of floating instruction queue wakeup accesses
system.cpu0.iq.int_alu_accesses                135015                       # Number of integer alu accesses
system.cpu0.iq.fp_alu_accesses                     48                       # Number of floating point alu accesses
system.cpu0.iew.lsq.thread0.forwLoads              51                       # Number of loads that had data forwarded from stores
system.cpu0.iew.lsq.thread0.invAddrLoads            0                       # Number of loads ignored due to an invalid address
system.cpu0.iew.lsq.thread0.squashedLoads         2538                       # Number of loads squashed
system.cpu0.iew.lsq.thread0.ignoredResponses            1                       # Number of memory responses ignored because the instruction is squashed
system.cpu0.iew.lsq.thread0.memOrderViolation           17                       # Number of memory ordering violations
system.cpu0.iew.lsq.thread0.squashedStores          908                       # Number of stores squashed
system.cpu0.iew.lsq.thread0.invAddrSwpfs            0                       # Number of software prefetches ignored due to an invalid address
system.cpu0.iew.lsq.thread0.blockedLoads            0                       # Number of blocked loads due to partial load-store forwarding
system.cpu0.iew.lsq.thread0.rescheduledLoads           10                       # Number of loads that were rescheduled
system.cpu0.iew.lsq.thread0.cacheBlocked          328                       # Number of times an access to memory failed due to the cache being blocked
system.cpu0.iew.iewIdleCycles                       0                       # Number of cycles IEW is idle
system.cpu0.iew.iewSquashCycles                  1210                       # Number of cycles IEW is squashing
system.cpu0.iew.iewBlockCycles                    551                       # Number of cycles IEW is blocking
system.cpu0.iew.iewUnblockCycles                 1310                       # Number of cycles IEW is unblocking
system.cpu0.iew.iewDispatchedInsts             119719                       # Number of instructions dispatched to IQ
system.cpu0.iew.iewDispSquashedInsts                0                       # Number of squashed instructions skipped by dispatch
system.cpu0.iew.iewDispLoadInsts                23967                       # Number of dispatched load instructions
system.cpu0.iew.iewDispStoreInsts               11500                       # Number of dispatched store instructions
system.cpu0.iew.iewDispNonSpecInsts               102                       # Number of dispatched non-speculative instructions
system.cpu0.iew.iewIQFullEvents                     4                       # Number of times the IQ has become full, causing a stall
system.cpu0.iew.iewLSQFullEvents                 1305                       # Number of times the LSQ has become full, causing a stall
system.cpu0.iew.memOrderViolationEvents            17                       # Number of memory order violations
system.cpu0.iew.predictedTakenIncorrect           264                       # Number of branches that were predicted taken incorrectly
system.cpu0.iew.predictedNotTakenIncorrect          968                       # Number of branches that were predicted not taken incorrectly
system.cpu0.iew.branchMispredicts                1232                       # Number of branch mispredicts detected at execute
system.cpu0.iew.iewExecutedInsts               114138                       # Number of executed instructions
system.cpu0.iew.iewExecLoadInsts                22578                       # Number of load instructions executed
system.cpu0.iew.iewExecSquashedInsts             2000                       # Number of squashed instructions skipped in execute
system.cpu0.iew.exec_swp                            0                       # number of swp insts executed
system.cpu0.iew.exec_nop                           15                       # number of nop insts executed
system.cpu0.iew.exec_refs                       33421                       # number of memory reference insts executed
system.cpu0.iew.exec_branches                   10336                       # Number of branches executed
system.cpu0.iew.exec_stores                     10843                       # Number of stores executed
system.cpu0.iew.exec_rate                    0.749399                       # Inst execution rate
system.cpu0.iew.wb_sent                        113518                       # cumulative count of insts sent to commit
system.cpu0.iew.wb_count                       113398                       # cumulative count of insts written-back
system.cpu0.iew.wb_producers                    70849                       # num instructions producing a value
system.cpu0.iew.wb_consumers                   108666                       # num instructions consuming a value
system.cpu0.iew.wb_penalized                        0                       # number of instrctions required to write to 'other' IQ
system.cpu0.iew.wb_rate                      0.744541                       # insts written-back per cycle
system.cpu0.iew.wb_fanout                    0.651989                       # average fanout of values written-back
system.cpu0.iew.wb_penalized_rate                   0                       # fraction of instructions written-back that wrote to 'other' IQ
system.cpu0.commit.commitSquashedInsts           7743                       # The number of squashed insts skipped by commit
system.cpu0.commit.commitNonSpecStalls            192                       # The number of times commit has been forced to stall to communicate backwards
system.cpu0.commit.branchMispredicts             1176                       # The number of times a branch was mispredicted
system.cpu0.commit.committed_per_cycle::samples       112890                       # Number of insts commited each cycle
system.cpu0.commit.committed_per_cycle::mean     0.973195                       # Number of insts commited each cycle
system.cpu0.commit.committed_per_cycle::stdev     1.857780                       # Number of insts commited each cycle
system.cpu0.commit.committed_per_cycle::underflows            0      0.00%      0.00% # Number of insts commited each cycle
system.cpu0.commit.committed_per_cycle::0        71429     63.27%     63.27% # Number of insts commited each cycle
system.cpu0.commit.committed_per_cycle::1        17887     15.84%     79.12% # Number of insts commited each cycle
system.cpu0.commit.committed_per_cycle::2         9022      7.99%     87.11% # Number of insts commited each cycle
system.cpu0.commit.committed_per_cycle::3         6229      5.52%     92.63% # Number of insts commited each cycle
system.cpu0.commit.committed_per_cycle::4         1187      1.05%     93.68% # Number of insts commited each cycle
system.cpu0.commit.committed_per_cycle::5         1066      0.94%     94.62% # Number of insts commited each cycle
system.cpu0.commit.committed_per_cycle::6         1630      1.44%     96.07% # Number of insts commited each cycle
system.cpu0.commit.committed_per_cycle::7          132      0.12%     96.18% # Number of insts commited each cycle
system.cpu0.commit.committed_per_cycle::8         4308      3.82%    100.00% # Number of insts commited each cycle
system.cpu0.commit.committed_per_cycle::overflows            0      0.00%    100.00% # Number of insts commited each cycle
system.cpu0.commit.committed_per_cycle::min_value            0                       # Number of insts commited each cycle
system.cpu0.commit.committed_per_cycle::max_value            8                       # Number of insts commited each cycle
system.cpu0.commit.committed_per_cycle::total       112890                       # Number of insts commited each cycle
system.cpu0.commit.committedInsts              102071                       # Number of instructions committed
system.cpu0.commit.committedOps                109864                       # Number of ops (including micro ops) committed
system.cpu0.commit.swp_count                        0                       # Number of s/w prefetches committed
system.cpu0.commit.refs                         32021                       # Number of memory references committed
system.cpu0.commit.loads                        21429                       # Number of loads committed
system.cpu0.commit.membars                        114                       # Number of memory barriers committed
system.cpu0.commit.branches                      9795                       # Number of branches committed
system.cpu0.commit.fp_insts                        28                       # Number of committed floating point instructions.
system.cpu0.commit.int_insts                   100579                       # Number of committed integer instructions.
system.cpu0.commit.function_calls                 294                       # Number of function calls committed.
system.cpu0.commit.op_class_0::No_OpClass            0      0.00%      0.00% # Class of committed instruction
system.cpu0.commit.op_class_0::IntAlu           63439     57.74%     57.74% # Class of committed instruction
system.cpu0.commit.op_class_0::IntMult          14401     13.11%     70.85% # Class of committed instruction
system.cpu0.commit.op_class_0::IntDiv               0      0.00%     70.85% # Class of committed instruction
system.cpu0.commit.op_class_0::FloatAdd             0      0.00%     70.85% # Class of committed instruction
system.cpu0.commit.op_class_0::FloatCmp             0      0.00%     70.85% # Class of committed instruction
system.cpu0.commit.op_class_0::FloatCvt             0      0.00%     70.85% # Class of committed instruction
system.cpu0.commit.op_class_0::FloatMult            0      0.00%     70.85% # Class of committed instruction
system.cpu0.commit.op_class_0::FloatDiv             0      0.00%     70.85% # Class of committed instruction
system.cpu0.commit.op_class_0::FloatSqrt            0      0.00%     70.85% # Class of committed instruction
system.cpu0.commit.op_class_0::SimdAdd              0      0.00%     70.85% # Class of committed instruction
system.cpu0.commit.op_class_0::SimdAddAcc            0      0.00%     70.85% # Class of committed instruction
system.cpu0.commit.op_class_0::SimdAlu              0      0.00%     70.85% # Class of committed instruction
system.cpu0.commit.op_class_0::SimdCmp              0      0.00%     70.85% # Class of committed instruction
system.cpu0.commit.op_class_0::SimdCvt              0      0.00%     70.85% # Class of committed instruction
system.cpu0.commit.op_class_0::SimdMisc             0      0.00%     70.85% # Class of committed instruction
system.cpu0.commit.op_class_0::SimdMult             0      0.00%     70.85% # Class of committed instruction
system.cpu0.commit.op_class_0::SimdMultAcc            0      0.00%     70.85% # Class of committed instruction
system.cpu0.commit.op_class_0::SimdShift            0      0.00%     70.85% # Class of committed instruction
system.cpu0.commit.op_class_0::SimdShiftAcc            0      0.00%     70.85% # Class of committed instruction
system.cpu0.commit.op_class_0::SimdSqrt             0      0.00%     70.85% # Class of committed instruction
system.cpu0.commit.op_class_0::SimdFloatAdd            0      0.00%     70.85% # Class of committed instruction
system.cpu0.commit.op_class_0::SimdFloatAlu            0      0.00%     70.85% # Class of committed instruction
system.cpu0.commit.op_class_0::SimdFloatCmp            0      0.00%     70.85% # Class of committed instruction
system.cpu0.commit.op_class_0::SimdFloatCvt            0      0.00%     70.85% # Class of committed instruction
[...]
system.cpu3.dcache.ReadReq_avg_mshr_miss_latency::total 14875.024194                       # average ReadReq mshr miss latency
system.cpu3.dcache.WriteReq_avg_mshr_miss_latency::cpu3.data 18839.285714                       # average WriteReq mshr miss latency
system.cpu3.dcache.WriteReq_avg_mshr_miss_latency::total 18839.285714                       # average WriteReq mshr miss latency
system.cpu3.dcache.SoftPFReq_avg_mshr_miss_latency::cpu3.data         9500                       # average SoftPFReq mshr miss latency
system.cpu3.dcache.SoftPFReq_avg_mshr_miss_latency::total         9500                       # average SoftPFReq mshr miss latency
system.cpu3.dcache.LoadLockedReq_avg_mshr_miss_latency::cpu3.data         9250                       # average LoadLockedReq mshr miss latency
system.cpu3.dcache.LoadLockedReq_avg_mshr_miss_latency::total         9250                       # average LoadLockedReq mshr miss latency
system.cpu3.dcache.StoreCondReq_avg_mshr_miss_latency::cpu3.data        10167                       # average StoreCondReq mshr miss latency
system.cpu3.dcache.StoreCondReq_avg_mshr_miss_latency::total        10167                       # average StoreCondReq mshr miss latency
system.cpu3.dcache.demand_avg_mshr_miss_latency::cpu3.data 15605.282895                       # average overall mshr miss latency
system.cpu3.dcache.demand_avg_mshr_miss_latency::total 15605.282895                       # average overall mshr miss latency
system.cpu3.dcache.overall_avg_mshr_miss_latency::cpu3.data 15565.379085                       # average overall mshr miss latency
system.cpu3.dcache.overall_avg_mshr_miss_latency::total 15565.379085                       # average overall mshr miss latency
system.cpu3.dcache.no_allocate_misses               0                       # Number of misses that were no-allocate
system.cpu3.icache.tags.replacements                0                       # number of replacements
system.cpu3.icache.tags.tagsinuse           12.531441                       # Cycle average of tags in use
system.cpu3.icache.tags.total_refs              21754                       # Total number of references to valid blocks.
system.cpu3.icache.tags.sampled_refs               56                       # Sample count of references to valid blocks.
system.cpu3.icache.tags.avg_refs           388.464286                       # Average number of references to valid blocks.
system.cpu3.icache.tags.warmup_cycle                0                       # Cycle when the warmup percentage was hit.
system.cpu3.icache.tags.occ_blocks::cpu3.inst    12.531441                       # Average occupied blocks per requestor
system.cpu3.icache.tags.occ_percent::cpu3.inst     0.024475                       # Average percentage of cache occupancy
system.cpu3.icache.tags.occ_percent::total     0.024475                       # Average percentage of cache occupancy
system.cpu3.icache.tags.occ_task_id_blocks::1024           56                       # Occupied blocks per task id
system.cpu3.icache.tags.age_task_id_blocks_1024::0           15                       # Occupied blocks per task id
system.cpu3.icache.tags.age_task_id_blocks_1024::1           41                       # Occupied blocks per task id
system.cpu3.icache.tags.occ_task_id_percent::1024     0.109375                       # Percentage of cache occupancy per task id
system.cpu3.icache.tags.tag_accesses            43702                       # Number of tag accesses
system.cpu3.icache.tags.data_accesses           43702                       # Number of data accesses
system.cpu3.icache.ReadReq_hits::cpu3.inst        21754                       # number of ReadReq hits
system.cpu3.icache.ReadReq_hits::total          21754                       # number of ReadReq hits
system.cpu3.icache.demand_hits::cpu3.inst        21754                       # number of demand (read+write) hits
system.cpu3.icache.demand_hits::total           21754                       # number of demand (read+write) hits
system.cpu3.icache.overall_hits::cpu3.inst        21754                       # number of overall hits
system.cpu3.icache.overall_hits::total          21754                       # number of overall hits
system.cpu3.icache.ReadReq_misses::cpu3.inst           69                       # number of ReadReq misses
system.cpu3.icache.ReadReq_misses::total           69                       # number of ReadReq misses
system.cpu3.icache.demand_misses::cpu3.inst           69                       # number of demand (read+write) misses
system.cpu3.icache.demand_misses::total            69                       # number of demand (read+write) misses
system.cpu3.icache.overall_misses::cpu3.inst           69                       # number of overall misses
system.cpu3.icache.overall_misses::total           69                       # number of overall misses
system.cpu3.icache.ReadReq_miss_latency::cpu3.inst      4397499                       # number of ReadReq miss cycles
system.cpu3.icache.ReadReq_miss_latency::total      4397499                       # number of ReadReq miss cycles
system.cpu3.icache.demand_miss_latency::cpu3.inst      4397499                       # number of demand (read+write) miss cycles
system.cpu3.icache.demand_miss_latency::total      4397499                       # number of demand (read+write) miss cycles
system.cpu3.icache.overall_miss_latency::cpu3.inst      4397499                       # number of overall miss cycles
system.cpu3.icache.overall_miss_latency::total      4397499                       # number of overall miss cycles
system.cpu3.icache.ReadReq_accesses::cpu3.inst        21823                       # number of ReadReq accesses(hits+misses)
system.cpu3.icache.ReadReq_accesses::total        21823                       # number of ReadReq accesses(hits+misses)
system.cpu3.icache.demand_accesses::cpu3.inst        21823                       # number of demand (read+write) accesses
system.cpu3.icache.demand_accesses::total        21823                       # number of demand (read+write) accesses
system.cpu3.icache.overall_accesses::cpu3.inst        21823                       # number of overall (read+write) accesses
system.cpu3.icache.overall_accesses::total        21823                       # number of overall (read+write) accesses
system.cpu3.icache.ReadReq_miss_rate::cpu3.inst     0.003162                       # miss rate for ReadReq accesses
system.cpu3.icache.ReadReq_miss_rate::total     0.003162                       # miss rate for ReadReq accesses
system.cpu3.icache.demand_miss_rate::cpu3.inst     0.003162                       # miss rate for demand accesses
system.cpu3.icache.demand_miss_rate::total     0.003162                       # miss rate for demand accesses
system.cpu3.icache.overall_miss_rate::cpu3.inst     0.003162                       # miss rate for overall accesses
system.cpu3.icache.overall_miss_rate::total     0.003162                       # miss rate for overall accesses
system.cpu3.icache.ReadReq_avg_miss_latency::cpu3.inst 63731.869565                       # average ReadReq miss latency
system.cpu3.icache.ReadReq_avg_miss_latency::total 63731.869565                       # average ReadReq miss latency
system.cpu3.icache.demand_avg_miss_latency::cpu3.inst 63731.869565                       # average overall miss latency
system.cpu3.icache.demand_avg_miss_latency::total 63731.869565                       # average overall miss latency
system.cpu3.icache.overall_avg_miss_latency::cpu3.inst 63731.869565                       # average overall miss latency
system.cpu3.icache.overall_avg_miss_latency::total 63731.869565                       # average overall miss latency
system.cpu3.icache.blocked_cycles::no_mshrs         1745                       # number of cycles access was blocked
system.cpu3.icache.blocked_cycles::no_targets            0                       # number of cycles access was blocked
system.cpu3.icache.blocked::no_mshrs               13                       # number of cycles access was blocked
system.cpu3.icache.blocked::no_targets              0                       # number of cycles access was blocked
system.cpu3.icache.avg_blocked_cycles::no_mshrs   134.230769                       # average number of cycles each access was blocked
system.cpu3.icache.avg_blocked_cycles::no_targets          nan                       # average number of cycles each access was blocked
system.cpu3.icache.fast_writes                      0                       # number of fast writes performed
system.cpu3.icache.cache_copies                     0                       # number of cache copies performed
system.cpu3.icache.ReadReq_mshr_hits::cpu3.inst           13                       # number of ReadReq MSHR hits
system.cpu3.icache.ReadReq_mshr_hits::total           13                       # number of ReadReq MSHR hits
system.cpu3.icache.demand_mshr_hits::cpu3.inst           13                       # number of demand (read+write) MSHR hits
system.cpu3.icache.demand_mshr_hits::total           13                       # number of demand (read+write) MSHR hits
system.cpu3.icache.overall_mshr_hits::cpu3.inst           13                       # number of overall MSHR hits
system.cpu3.icache.overall_mshr_hits::total           13                       # number of overall MSHR hits
system.cpu3.icache.ReadReq_mshr_misses::cpu3.inst           56                       # number of ReadReq MSHR misses
system.cpu3.icache.ReadReq_mshr_misses::total           56                       # number of ReadReq MSHR misses
system.cpu3.icache.demand_mshr_misses::cpu3.inst           56                       # number of demand (read+write) MSHR misses
system.cpu3.icache.demand_mshr_misses::total           56                       # number of demand (read+write) MSHR misses
system.cpu3.icache.overall_mshr_misses::cpu3.inst           56                       # number of overall MSHR misses
system.cpu3.icache.overall_mshr_misses::total           56                       # number of overall MSHR misses
system.cpu3.icache.ReadReq_mshr_miss_latency::cpu3.inst      3746999                       # number of ReadReq MSHR miss cycles
system.cpu3.icache.ReadReq_mshr_miss_latency::total      3746999                       # number of ReadReq MSHR miss cycles
system.cpu3.icache.demand_mshr_miss_latency::cpu3.inst      3746999                       # number of demand (read+write) MSHR miss cycles
system.cpu3.icache.demand_mshr_miss_latency::total      3746999                       # number of demand (read+write) MSHR miss cycles
system.cpu3.icache.overall_mshr_miss_latency::cpu3.inst      3746999                       # number of overall MSHR miss cycles
system.cpu3.icache.overall_mshr_miss_latency::total      3746999                       # number of overall MSHR miss cycles
system.cpu3.icache.ReadReq_mshr_miss_rate::cpu3.inst     0.002566                       # mshr miss rate for ReadReq accesses
system.cpu3.icache.ReadReq_mshr_miss_rate::total     0.002566                       # mshr miss rate for ReadReq accesses
system.cpu3.icache.demand_mshr_miss_rate::cpu3.inst     0.002566                       # mshr miss rate for demand accesses
system.cpu3.icache.demand_mshr_miss_rate::total     0.002566                       # mshr miss rate for demand accesses
system.cpu3.icache.overall_mshr_miss_rate::cpu3.inst     0.002566                       # mshr miss rate for overall accesses
system.cpu3.icache.overall_mshr_miss_rate::total     0.002566                       # mshr miss rate for overall accesses
system.cpu3.icache.ReadReq_avg_mshr_miss_latency::cpu3.inst 66910.696429                       # average ReadReq mshr miss latency
system.cpu3.icache.ReadReq_avg_mshr_miss_latency::total 66910.696429                       # average ReadReq mshr miss latency
system.cpu3.icache.demand_avg_mshr_miss_latency::cpu3.inst 66910.696429                       # average overall mshr miss latency
system.cpu3.icache.demand_avg_mshr_miss_latency::total 66910.696429                       # average overall mshr miss latency
system.cpu3.icache.overall_avg_mshr_miss_latency::cpu3.inst 66910.696429                       # average overall mshr miss latency
system.cpu3.icache.overall_avg_mshr_miss_latency::total 66910.696429                       # average overall mshr miss latency
system.cpu3.icache.no_allocate_misses               0                       # Number of misses that were no-allocate
system.membus.trans_dist::ReadReq                1343                       # Transaction distribution
system.membus.trans_dist::ReadResp               1342                       # Transaction distribution
system.membus.trans_dist::Writeback                14                       # Transaction distribution
system.membus.trans_dist::UpgradeReq               11                       # Transaction distribution
system.membus.trans_dist::SCUpgradeReq             11                       # Transaction distribution
system.membus.trans_dist::UpgradeResp              22                       # Transaction distribution
system.membus.trans_dist::ReadExReq               451                       # Transaction distribution
system.membus.trans_dist::ReadExResp              451                       # Transaction distribution
system.membus.pkt_count_system.cpu0.icache.mem_side::system.mem_ctrls.port         1235                       # Packet count per connected master and slave (bytes)
system.membus.pkt_count_system.cpu0.dcache.mem_side::system.mem_ctrls.port         1108                       # Packet count per connected master and slave (bytes)
system.membus.pkt_count_system.cpu1.icache.mem_side::system.mem_ctrls.port          112                       # Packet count per connected master and slave (bytes)
system.membus.pkt_count_system.cpu1.dcache.mem_side::system.mem_ctrls.port          180                       # Packet count per connected master and slave (bytes)
system.membus.pkt_count_system.cpu2.icache.mem_side::system.mem_ctrls.port          112                       # Packet count per connected master and slave (bytes)
system.membus.pkt_count_system.cpu2.dcache.mem_side::system.mem_ctrls.port          180                       # Packet count per connected master and slave (bytes)
system.membus.pkt_count_system.cpu3.icache.mem_side::system.mem_ctrls.port          112                       # Packet count per connected master and slave (bytes)
system.membus.pkt_count_system.cpu3.dcache.mem_side::system.mem_ctrls.port          178                       # Packet count per connected master and slave (bytes)
system.membus.pkt_count::total                   3217                       # Packet count per connected master and slave (bytes)
system.membus.pkt_size_system.cpu0.icache.mem_side::system.mem_ctrls.port        39488                       # Cumulative packet size per connected master and slave (bytes)
system.membus.pkt_size_system.cpu0.dcache.mem_side::system.mem_ctrls.port        35328                       # Cumulative packet size per connected master and slave (bytes)
system.membus.pkt_size_system.cpu1.icache.mem_side::system.mem_ctrls.port         3584                       # Cumulative packet size per connected master and slave (bytes)
system.membus.pkt_size_system.cpu1.dcache.mem_side::system.mem_ctrls.port         1152                       # Cumulative packet size per connected master and slave (bytes)
system.membus.pkt_size_system.cpu2.icache.mem_side::system.mem_ctrls.port         3584                       # Cumulative packet size per connected master and slave (bytes)
system.membus.pkt_size_system.cpu2.dcache.mem_side::system.mem_ctrls.port         1216                       # Cumulative packet size per connected master and slave (bytes)
system.membus.pkt_size_system.cpu3.icache.mem_side::system.mem_ctrls.port         3584                       # Cumulative packet size per connected master and slave (bytes)
system.membus.pkt_size_system.cpu3.dcache.mem_side::system.mem_ctrls.port         1216                       # Cumulative packet size per connected master and slave (bytes)
system.membus.pkt_size::total                   89152                       # Cumulative packet size per connected master and slave (bytes)
system.membus.snoops                              428                       # Total snoops (count)
system.membus.snoop_fanout::samples              1830                       # Request fanout histogram
system.membus.snoop_fanout::mean                    7                       # Request fanout histogram
system.membus.snoop_fanout::stdev                   0                       # Request fanout histogram
system.membus.snoop_fanout::underflows              0      0.00%      0.00% # Request fanout histogram
system.membus.snoop_fanout::0                       0      0.00%      0.00% # Request fanout histogram
system.membus.snoop_fanout::1                       0      0.00%      0.00% # Request fanout histogram
system.membus.snoop_fanout::2                       0      0.00%      0.00% # Request fanout histogram
system.membus.snoop_fanout::3                       0      0.00%      0.00% # Request fanout histogram
system.membus.snoop_fanout::4                       0      0.00%      0.00% # Request fanout histogram
system.membus.snoop_fanout::5                       0      0.00%      0.00% # Request fanout histogram
system.membus.snoop_fanout::6                       0      0.00%      0.00% # Request fanout histogram
system.membus.snoop_fanout::7                    1830    100.00%    100.00% # Request fanout histogram
system.membus.snoop_fanout::8                       0      0.00%    100.00% # Request fanout histogram
system.membus.snoop_fanout::overflows               0      0.00%    100.00% # Request fanout histogram
system.membus.snoop_fanout::min_value               7                       # Request fanout histogram
system.membus.snoop_fanout::max_value               7                       # Request fanout histogram
system.membus.snoop_fanout::total                1830                       # Request fanout histogram
system.membus.reqLayer0.occupancy             2373999                       # Layer occupancy (ticks)
system.membus.reqLayer0.utilization               3.1                       # Layer utilization (%)
system.membus.respLayer1.occupancy            3286500                       # Layer occupancy (ticks)
system.membus.respLayer1.utilization              4.3                       # Layer utilization (%)
system.membus.respLayer2.occupancy            2894993                       # Layer occupancy (ticks)
system.membus.respLayer2.utilization              3.8                       # Layer utilization (%)
system.membus.respLayer5.occupancy             297750                       # Layer occupancy (ticks)
system.membus.respLayer5.utilization              0.4                       # Layer utilization (%)
system.membus.respLayer6.occupancy             806244                       # Layer occupancy (ticks)
system.membus.respLayer6.utilization              1.1                       # Layer utilization (%)
system.membus.respLayer9.occupancy             302500                       # Layer occupancy (ticks)
system.membus.respLayer9.utilization              0.4                       # Layer utilization (%)
system.membus.respLayer10.occupancy            801244                       # Layer occupancy (ticks)
system.membus.respLayer10.utilization             1.1                       # Layer utilization (%)
system.membus.respLayer13.occupancy            297500                       # Layer occupancy (ticks)
system.membus.respLayer13.utilization             0.4                       # Layer utilization (%)
system.membus.respLayer14.occupancy            778496                       # Layer occupancy (ticks)
system.membus.respLayer14.utilization             1.0                       # Layer utilization (%)

---------- End Simulation Statistics   ----------
